# generated using pymatgen
data_Li4MnVFeSb(P3O4)2
_symmetry_space_group_name_H-M   'P 1'
_cell_length_a   5.17248522
_cell_length_b   4.89609929
_cell_length_c   5.59175630
_cell_angle_alpha   47.54690117
_cell_angle_beta   107.31153100
_cell_angle_gamma   107.90755426
_symmetry_Int_Tables_number   1
_chemical_formula_structural   Li4MnVFeSb(P3O4)2
_chemical_formula_sum   'Li4 Mn1 V1 Fe1 Sb1 P6 O8'
_cell_volume   98.60248555
_cell_formula_units_Z   1
loop_
 _symmetry_equiv_pos_site_id
 _symmetry_equiv_pos_as_xyz
  1  'x, y, z'
loop_
 _atom_site_type_symbol
 _atom_site_label
 _atom_site_symmetry_multiplicity
 _atom_site_fract_x
 _atom_site_fract_y
 _atom_site_fract_z
 _atom_site_occupancy
  Li  Li0  1  0.96609861  0.94842774  0.31183106  1
  Li  Li1  1  0.36229169  0.41278255  0.33825010  1
  Mn  Mn2  1  0.68504840  0.40633631  0.75466734  1
  Sb  Sb3  1  0.84236896  0.10209441  0.02599875  1
  Li  Li4  1  0.97276163  0.97575539  0.65839249  1
  Li  Li5  1  0.65155125  0.99861604  0.96485668  1
  O  O6  1  0.01131981  0.30339780  0.00661108  1
  P  P7  1  0.02219941  0.98336989  0.01126547  1
  Fe  Fe8  1  0.96520227  0.55867267  0.67967081  1
  P  P9  1  0.89195186  0.74211115  0.97291934  1
  V  V10  1  0.58493507  0.97703040  0.03089915  1
  O  O11  1  0.02380215  0.08101477  0.14315286  1
  P  P12  1  0.01042669  0.53515702  0.61692846  1
  O  O13  1  0.98320532  0.40000877  0.00826527  1
  P  P14  1  0.21694605  0.99529159  0.96894234  1
  O  O15  1  0.26890293  0.06226820  0.48681271  1
  O  O16  1  0.58587873  0.99025565  0.64502037  1
  P  P17  1  0.97151685  0.49312967  0.39072251  1
  O  O18  1  0.03812692  0.06343351  0.78642017  1
  P  P19  1  0.35764036  0.99301332  0.02594949  1
  O  O20  1  0.01832362  0.99097836  0.38958168  1
  O  O21  1  0.03147203  0.52532792  0.21886943  1
