# generated using pymatgen
data_Li3FeSn2SbP5O8
_symmetry_space_group_name_H-M   'P 1'
_cell_length_a   10.31756279
_cell_length_b   9.47962197
_cell_length_c   5.72616762
_cell_angle_alpha   81.11929145
_cell_angle_beta   68.30231898
_cell_angle_gamma   78.67347072
_symmetry_Int_Tables_number   1
_chemical_formula_structural   Li3FeSn2SbP5O8
_chemical_formula_sum   'Li3 Fe1 Sn2 Sb1 P5 O8'
_cell_volume   508.18145476
_cell_formula_units_Z   1
loop_
 _symmetry_equiv_pos_site_id
 _symmetry_equiv_pos_as_xyz
  1  'x, y, z'
loop_
 _atom_site_type_symbol
 _atom_site_label
 _atom_site_symmetry_multiplicity
 _atom_site_fract_x
 _atom_site_fract_y
 _atom_site_fract_z
 _atom_site_occupancy
  Li  Li0  1  0.96191734  0.91560185  0.21036372  1
  Li  Li1  1  0.47486115  0.39338160  0.40788174  1
  Li  Li2  1  0.57499087  0.41154742  0.72583622  1
  Fe  Fe3  1  0.83510268  0.12269669  0.03737013  1
  O  O4  1  0.01350558  0.41979152  0.01011368  1
  O  O5  1  0.02667139  0.97306633  0.01604616  1
  Sn  Sn6  1  0.95613176  0.62286419  0.61397862  1
  P  P7  1  0.87561935  0.76017523  0.97073835  1
  P  P8  1  0.63970232  0.96206921  0.05141789  1
  Sn  Sn9  1  0.03243514  0.08764061  0.15693618  1
  O  O10  1  0.01277069  0.49955726  0.51561975  1
  O  O11  1  0.98013234  0.55892557  0.01247682  1
  O  O12  1  0.32516047  0.98842311  0.96624660  1
  P  P13  1  0.34836927  0.06792144  0.55309898  1
  O  O14  1  0.52996665  0.98161298  0.54298836  1
  Sb  Sb15  1  0.96656501  0.54263663  0.28588203  1
  P  P16  1  0.04102863  0.06688306  0.67992908  1
  O  O17  1  0.37337479  0.98623067  0.03627488  1
  O  O18  1  0.02293074  0.98147994  0.33423519  1
  P  P19  1  0.03707205  0.55783516  0.26822108  1
