# generated using pymatgen
data_Li2MnFeSn2P5O7
_symmetry_space_group_name_H-M   'P 1'
_cell_length_a   6.25297274
_cell_length_b   7.25004310
_cell_length_c   6.10781853
_cell_angle_alpha   86.71989566
_cell_angle_beta   95.85748945
_cell_angle_gamma   95.95949884
_symmetry_Int_Tables_number   1
_chemical_formula_structural   Li2MnFeSn2P5O7
_chemical_formula_sum   'Li2 Mn1 Fe1 Sn2 P5 O7'
_cell_volume   273.65513136
_cell_formula_units_Z   1
loop_
 _symmetry_equiv_pos_site_id
 _symmetry_equiv_pos_as_xyz
  1  'x, y, z'
loop_
 _atom_site_type_symbol
 _atom_site_label
 _atom_site_symmetry_multiplicity
 _atom_site_fract_x
 _atom_site_fract_y
 _atom_site_fract_z
 _atom_site_occupancy
  Li  Li0  1  0.95049489  0.89275563  0.29229739  1
  Li  Li1  1  0.40703580  0.42446271  0.42983079  1
  P  P2  1  0.63053751  0.45557013  0.71114653  1
  Mn  Mn3  1  0.78560621  0.13959308  0.04910200  1
  Sn  Sn4  1  0.94385856  0.53399074  0.60096169  1
  Fe  Fe5  1  0.85405195  0.68388891  0.96663195  1
  O  O6  1  0.58220828  0.94852436  0.06357990  1
  O  O7  1  0.04082934  0.09910411  0.20124929  1
  P  P8  1  0.01831862  0.57150942  0.52056128  1
  Sn  Sn9  1  0.97302979  0.49810669  0.02379333  1
  O  O10  1  0.29863715  0.97267377  0.96091521  1
  O  O11  1  0.36698592  0.07606484  0.46961915  1
  P  P12  1  0.51033044  0.96670723  0.60065895  1
  O  O13  1  0.95625794  0.56824100  0.35083520  1
  P  P14  1  0.05569240  0.07506645  0.69046479  1
  P  P15  1  0.34526438  0.97321856  0.04916078  1
  O  O16  1  0.03199277  0.96911317  0.36578044  1
  O  O17  1  0.04953582  0.56836760  0.25242490  1
