# generated using pymatgen
data_Li4VFe(PO)6
_symmetry_space_group_name_H-M   'P 1'
_cell_length_a   6.06059017
_cell_length_b   3.03005495
_cell_length_c   6.66982216
_cell_angle_alpha   108.94871434
_cell_angle_beta   79.05670692
_cell_angle_gamma   69.05645481
_symmetry_Int_Tables_number   1
_chemical_formula_structural   Li4VFe(PO)6
_chemical_formula_sum   'Li4 V1 Fe1 P6 O6'
_cell_volume   101.49780903
_cell_formula_units_Z   1
loop_
 _symmetry_equiv_pos_site_id
 _symmetry_equiv_pos_as_xyz
  1  'x, y, z'
loop_
 _atom_site_type_symbol
 _atom_site_label
 _atom_site_symmetry_multiplicity
 _atom_site_fract_x
 _atom_site_fract_y
 _atom_site_fract_z
 _atom_site_occupancy
  Li  Li0  1  0.94185400  0.89748883  0.28735453  1
  Li  Li1  1  0.44021711  0.44136277  0.38752300  1
  Li  Li2  1  0.57113463  0.40268365  0.70903617  1
  Li  Li3  1  0.80655789  0.15152451  0.06280805  1
  Fe  Fe4  1  0.93351364  0.55813491  0.63379836  1
  P  P5  1  0.83852297  0.75661618  0.96280706  1
  V  V6  1  0.63644922  0.93487388  0.07154737  1
  P  P7  1  0.04664324  0.10820092  0.18326575  1
  O  O8  1  0.02320540  0.50340855  0.52752888  1
  P  P9  1  0.96689606  0.49838483  0.02967428  1
  O  O10  1  0.32304636  0.96387202  0.95641166  1
  P  P11  1  0.37010583  0.08209333  0.54855388  1
  O  O12  1  0.53736222  0.95712256  0.53724819  1
  P  P13  1  0.95107323  0.52741921  0.33474994  1
  O  O14  1  0.05906469  0.08230248  0.67489278  1
  P  P15  1  0.38065246  0.96345150  0.05729756  1
  O  O16  1  0.03766497  0.95976824  0.35669032  1
  O  O17  1  0.05701439  0.51016748  0.28360409  1
