# generated using pymatgen
data_Li4SnP6O7
_symmetry_space_group_name_H-M   'P 1'
_cell_length_a   4.80780961
_cell_length_b   9.00393735
_cell_length_c   6.66178109
_cell_angle_alpha   56.87422877
_cell_angle_beta   106.62810078
_cell_angle_gamma   95.07268742
_symmetry_Int_Tables_number   1
_chemical_formula_structural   Li4SnP6O7
_chemical_formula_sum   'Li4 Sn1 P6 O7'
_cell_volume   230.58230073
_cell_formula_units_Z   1
loop_
 _symmetry_equiv_pos_site_id
 _symmetry_equiv_pos_as_xyz
  1  'x, y, z'
loop_
 _atom_site_type_symbol
 _atom_site_label
 _atom_site_symmetry_multiplicity
 _atom_site_fract_x
 _atom_site_fract_y
 _atom_site_fract_z
 _atom_site_occupancy
  Li  Li0  1  0.94994581  0.89310938  0.40196779  1
  Li  Li1  1  0.34485999  0.48596045  0.44970092  1
  Li  Li2  1  0.66426247  0.52080107  0.72412753  1
  Li  Li3  1  0.74379867  0.12615614  0.05500793  1
  P  P4  1  0.94546074  0.43611383  0.61134923  1
  P  P5  1  0.85767215  0.63492501  0.96670318  1
  Sn  Sn6  1  0.46317664  0.95017964  0.05564895  1
  P  P7  1  0.03552483  0.09959573  0.26543188  1
  P  P8  1  0.01854694  0.63988191  0.56813836  1
  O  O9  1  0.97301066  0.40219206  0.02494032  1
  P  P10  1  0.24212492  0.97693586  0.96052986  1
  O  O11  1  0.32688358  0.07581314  0.42879364  1
  O  O12  1  0.48811221  0.96854031  0.62017483  1
  O  O13  1  0.95762682  0.61069971  0.44430295  1
  O  O14  1  0.06036709  0.07435128  0.72999185  1
  O  O15  1  0.33094269  0.97315770  0.05207670  1
  P  P16  1  0.03003008  0.97354269  0.45543289  1
  O  O17  1  0.04987003  0.60462159  0.22399104  1
