# generated using pymatgen
data_Li3MnCrP4O9
_symmetry_space_group_name_H-M   'P 1'
_cell_length_a   7.07368055
_cell_length_b   4.32749048
_cell_length_c   4.80152891
_cell_angle_alpha   63.83988403
_cell_angle_beta   67.70423942
_cell_angle_gamma   74.68988124
_symmetry_Int_Tables_number   1
_chemical_formula_structural   Li3MnCrP4O9
_chemical_formula_sum   'Li3 Mn1 Cr1 P4 O9'
_cell_volume   121.23036830
_cell_formula_units_Z   1
loop_
 _symmetry_equiv_pos_site_id
 _symmetry_equiv_pos_as_xyz
  1  'x, y, z'
loop_
 _atom_site_type_symbol
 _atom_site_label
 _atom_site_symmetry_multiplicity
 _atom_site_fract_x
 _atom_site_fract_y
 _atom_site_fract_z
 _atom_site_occupancy
  Li  Li0  1  0.93935168  0.88263696  0.32157114  1
  Li  Li1  1  0.38500136  0.45718285  0.42892453  1
  Li  Li2  1  0.59840524  0.47171968  0.70835704  1
  Cr  Cr3  1  0.77079761  0.14929268  0.06567140  1
  O  O4  1  0.93211734  0.52543056  0.59649241  1
  P  P5  1  0.83691913  0.70051867  0.96162164  1
  O  O6  1  0.55562806  0.93617636  0.07500377  1
  P  P7  1  0.04851918  0.11177757  0.22811197  1
  O  O8  1  0.02489759  0.57526511  0.53932321  1
  O  O9  1  0.96497685  0.49139562  0.03413028  1
  O  O10  1  0.28251520  0.96328104  0.95482039  1
  O  O11  1  0.34348613  0.08414143  0.47867456  1
  O  O12  1  0.50877243  0.95386803  0.57456642  1
  P  P13  1  0.94782209  0.57251233  0.38974917  1
  O  O14  1  0.06917366  0.08344980  0.69971406  1
  O  O15  1  0.35648689  0.96017826  0.06326358  1
  Mn  Mn16  1  0.03900113  0.95778143  0.40862817  1
  P  P17  1  0.06088961  0.56372511  0.27799433  1
