# generated using pymatgen
data_Li4FeSnGeP4O7
_symmetry_space_group_name_H-M   'P 1'
_cell_length_a   5.71363284
_cell_length_b   8.96843746
_cell_length_c   7.33282371
_cell_angle_alpha   94.90955305
_cell_angle_beta   88.80990597
_cell_angle_gamma   69.08284463
_symmetry_Int_Tables_number   1
_chemical_formula_structural   Li4FeSnGeP4O7
_chemical_formula_sum   'Li4 Fe1 Sn1 Ge1 P4 O7'
_cell_volume   349.16835450
_cell_formula_units_Z   1
loop_
 _symmetry_equiv_pos_site_id
 _symmetry_equiv_pos_as_xyz
  1  'x, y, z'
loop_
 _atom_site_type_symbol
 _atom_site_label
 _atom_site_symmetry_multiplicity
 _atom_site_fract_x
 _atom_site_fract_y
 _atom_site_fract_z
 _atom_site_occupancy
  Li  Li0  1  0.95583463  0.93581003  0.29932493  1
  Li  Li1  1  0.43320131  0.40163451  0.32950035  1
  Li  Li2  1  0.65103382  0.36691895  0.72359902  1
  Li  Li3  1  0.84158117  0.12097589  0.04718446  1
  Sn  Sn4  1  0.95014614  0.59602910  0.69130224  1
  P  P5  1  0.86374325  0.77687418  0.96748638  1
  O  O6  1  0.63537788  0.95577270  0.04688705  1
  Ge  Ge7  1  0.03538230  0.09610374  0.14535931  1
  O  O8  1  0.01709271  0.47432119  0.59896404  1
  P  P9  1  0.97509140  0.44246054  0.01797416  1
  O  O10  1  0.25628173  0.98029888  0.96262437  1
  P  P11  1  0.32110775  0.07198513  0.57431793  1
  P  P12  1  0.56812859  0.97471774  0.58143783  1
  Fe  Fe13  1  0.96184999  0.47683099  0.35945806  1
  O  O14  1  0.04603060  0.07258141  0.72657889  1
  O  O15  1  0.41323176  0.97680819  0.03726160  1
  O  O16  1  0.02713575  0.97426635  0.37997577  1
  O  O17  1  0.04438236  0.48024452  0.25340423  1
