# generated using pymatgen
data_Li3Ti(P3O4)2
_symmetry_space_group_name_H-M   'P 1'
_cell_length_a   5.67572531
_cell_length_b   3.01745693
_cell_length_c   3.76475006
_cell_angle_alpha   69.75222938
_cell_angle_beta   86.21303982
_cell_angle_gamma   87.61262235
_symmetry_Int_Tables_number   1
_chemical_formula_structural   Li3Ti(P3O4)2
_chemical_formula_sum   'Li3 Ti1 P6 O8'
_cell_volume   60.34751175
_cell_formula_units_Z   1
loop_
 _symmetry_equiv_pos_site_id
 _symmetry_equiv_pos_as_xyz
  1  'x, y, z'
loop_
 _atom_site_type_symbol
 _atom_site_label
 _atom_site_symmetry_multiplicity
 _atom_site_fract_x
 _atom_site_fract_y
 _atom_site_fract_z
 _atom_site_occupancy
  Li  Li0  1  0.95209885  0.93083745  0.30937597  1
  Li  Li1  1  0.45141247  0.42907423  0.33692598  1
  Li  Li2  1  0.57133853  0.36171037  0.72325832  1
  Ti  Ti3  1  0.83718967  0.12872313  0.04936098  1
  P  P4  1  0.94621891  0.57007170  0.68967241  1
  O  O5  1  0.85939807  0.79121214  0.96653342  1
  O  O6  1  0.64582527  0.94932801  0.05277599  1
  P  P7  1  0.03686003  0.09858283  0.15181978  1
  O  O8  1  0.01845264  0.47198898  0.59297740  1
  O  O9  1  0.97338068  0.45815682  0.02081943  1
  P  P10  1  0.28839356  0.97678429  0.96121830  1
  O  O11  1  0.31297266  0.07466908  0.58880192  1
  O  O12  1  0.57789528  0.97193140  0.53686982  1
  O  O13  1  0.95848882  0.48602778  0.34314096  1
  P  P14  1  0.04758519  0.07530464  0.71228594  1
  P  P15  1  0.39579219  0.97314048  0.04131686  1
  O  O16  1  0.02963617  0.96969044  0.38471347  1
  P  P17  1  0.04796252  0.47253096  0.28209341  1
