# generated using pymatgen
data_Li4CrP6O7
_symmetry_space_group_name_H-M   'P 1'
_cell_length_a   6.78170567
_cell_length_b   3.21168902
_cell_length_c   5.28136673
_cell_angle_alpha   83.05018134
_cell_angle_beta   70.73906935
_cell_angle_gamma   70.56052126
_symmetry_Int_Tables_number   1
_chemical_formula_structural   Li4CrP6O7
_chemical_formula_sum   'Li4 Cr1 P6 O7'
_cell_volume   102.39459049
_cell_formula_units_Z   1
loop_
 _symmetry_equiv_pos_site_id
 _symmetry_equiv_pos_as_xyz
  1  'x, y, z'
loop_
 _atom_site_type_symbol
 _atom_site_label
 _atom_site_symmetry_multiplicity
 _atom_site_fract_x
 _atom_site_fract_y
 _atom_site_fract_z
 _atom_site_occupancy
  Li  Li0  1  0.94941276  0.91276443  0.33038840  1
  Li  Li1  1  0.41790098  0.42981786  0.38641536  1
  Li  Li2  1  0.58833569  0.41418144  0.72049314  1
  Li  Li3  1  0.80991316  0.13371496  0.05427651  1
  P  P4  1  0.94375157  0.53574216  0.64872402  1
  O  O5  1  0.85736400  0.74920750  0.96578443  1
  Cr  Cr6  1  0.59709805  0.94717592  0.05857747  1
  P  P7  1  0.03860258  0.10086593  0.18662252  1
  P  P8  1  0.01986894  0.53503990  0.57336950  1
  O  O9  1  0.97108370  0.46619472  0.02404168  1
  O  O10  1  0.28497717  0.97588712  0.95995176  1
  P  P11  1  0.32341918  0.07586330  0.54461914  1
  O  O12  1  0.55972290  0.96586573  0.54774791  1
  O  O13  1  0.95652437  0.54013306  0.36049423  1
  O  O14  1  0.05415393  0.07665217  0.70330822  1
  P  P15  1  0.35550559  0.97103482  0.04810458  1
  O  O16  1  0.03119703  0.96906412  0.42339921  1
  P  P17  1  0.05082144  0.51678818  0.30416766  1
