# generated using pymatgen
data_Li5Cr(P2O3)3
_symmetry_space_group_name_H-M   'P 1'
_cell_length_a   10.66133693
_cell_length_b   10.93065632
_cell_length_c   6.40961787
_cell_angle_alpha   65.67350986
_cell_angle_beta   87.78198965
_cell_angle_gamma   75.07160935
_symmetry_Int_Tables_number   1
_chemical_formula_structural   Li5Cr(P2O3)3
_chemical_formula_sum   'Li5 Cr1 P6 O9'
_cell_volume   655.72518551
_cell_formula_units_Z   1
loop_
 _symmetry_equiv_pos_site_id
 _symmetry_equiv_pos_as_xyz
  1  'x, y, z'
loop_
 _atom_site_type_symbol
 _atom_site_label
 _atom_site_symmetry_multiplicity
 _atom_site_fract_x
 _atom_site_fract_y
 _atom_site_fract_z
 _atom_site_occupancy
  Li  Li0  1  0.96515566  0.94218653  0.30014351  1
  Li  Li1  1  0.40975055  0.42092416  0.35700411  1
  Li  Li2  1  0.60307294  0.40777838  0.75037968  1
  Li  Li3  1  0.83545512  0.10589236  0.03189338  1
  Li  Li4  1  0.97159415  0.96803480  0.65492642  1
  P  P5  1  0.01260055  0.34557119  0.00793113  1
  P  P6  1  0.02437171  0.97905374  0.01341022  1
  P  P7  1  0.96185243  0.57376128  0.67251378  1
  P  P8  1  0.88429469  0.77710301  0.97222316  1
  O  O9  1  0.60039085  0.97109956  0.03689849  1
  O  O10  1  0.02615143  0.08509222  0.15532120  1
  P  P11  1  0.01139324  0.51860344  0.59184247  1
  O  O12  1  0.98210585  0.45672515  0.00979276  1
  O  O13  1  0.24694298  0.99307215  0.96773291  1
  O  O14  1  0.28567410  0.06501941  0.54752243  1
  Cr  Cr15  1  0.56696492  0.98733068  0.56366342  1
  O  O16  1  0.97017777  0.52109700  0.34902206  1
  O  O17  1  0.03885835  0.06437796  0.74824184  1
  O  O18  1  0.36318937  0.98891544  0.02889140  1
  P  P19  1  0.01986608  0.98859537  0.39365149  1
  O  O20  1  0.03376305  0.52411431  0.25595960  1
