# generated using pymatgen
data_Li3CrCoP3O10
_symmetry_space_group_name_H-M   'P 1'
_cell_length_a   6.77617262
_cell_length_b   7.00004353
_cell_length_c   7.71815592
_cell_angle_alpha   64.68615527
_cell_angle_beta   89.78004241
_cell_angle_gamma   90.22331019
_symmetry_Int_Tables_number   1
_chemical_formula_structural   Li3CrCoP3O10
_chemical_formula_sum   'Li3 Cr1 Co1 P3 O10'
_cell_volume   330.93740876
_cell_formula_units_Z   1
loop_
 _symmetry_equiv_pos_site_id
 _symmetry_equiv_pos_as_xyz
  1  'x, y, z'
loop_
 _atom_site_type_symbol
 _atom_site_label
 _atom_site_symmetry_multiplicity
 _atom_site_fract_x
 _atom_site_fract_y
 _atom_site_fract_z
 _atom_site_occupancy
  Li  Li0  1  0.94742244  0.91861296  0.36666912  1
  Li  Li1  1  0.35427728  0.46726140  0.35743880  1
  Li  Li2  1  0.66789734  0.41246629  0.71885467  1
  Cr  Cr3  1  0.80548555  0.13035855  0.05169003  1
  P  P4  1  0.94225681  0.52853948  0.66232121  1
  P  P5  1  0.84931672  0.74022496  0.96555930  1
  O  O6  1  0.56192678  0.94797635  0.05469626  1
  Co  Co7  1  0.03898876  0.10296269  0.18405187  1
  O  O8  1  0.01933814  0.52627802  0.58395123  1
  O  O9  1  0.97172713  0.40481851  0.02445260  1
  O  O10  1  0.23397838  0.97185403  0.96025223  1
  O  O11  1  0.29578739  0.07544269  0.47300613  1
  O  O12  1  0.55443704  0.96558118  0.60710341  1
  P  P13  1  0.95617974  0.51137990  0.41802269  1
  O  O14  1  0.05692920  0.07717553  0.75965691  1
  O  O15  1  0.38842884  0.97221416  0.05021319  1
  O  O16  1  0.03103568  0.96635783  0.39108953  1
  O  O17  1  0.05089530  0.51512504  0.22412762  1
