# generated using pymatgen
data_Li5ZnCoP5O11
_symmetry_space_group_name_H-M   'P 1'
_cell_length_a   5.56551396
_cell_length_b   9.41870866
_cell_length_c   5.41796337
_cell_angle_alpha   87.10092835
_cell_angle_beta   88.90705932
_cell_angle_gamma   120.29475202
_symmetry_Int_Tables_number   1
_chemical_formula_structural   Li5ZnCoP5O11
_chemical_formula_sum   'Li5 Zn1 Co1 P5 O11'
_cell_volume   244.58412398
_cell_formula_units_Z   1
loop_
 _symmetry_equiv_pos_site_id
 _symmetry_equiv_pos_as_xyz
  1  'x, y, z'
loop_
 _atom_site_type_symbol
 _atom_site_label
 _atom_site_symmetry_multiplicity
 _atom_site_fract_x
 _atom_site_fract_y
 _atom_site_fract_z
 _atom_site_occupancy
  Li  Li0  1  0.96506619  0.92818367  0.34384167  1
  Li  Li1  1  0.36607215  0.46330836  0.40998638  1
  Li  Li2  1  0.64634675  0.47216600  0.74588031  1
  Li  Li3  1  0.80721700  0.10704026  0.03137588  1
  Zn  Zn4  1  0.97330999  0.96950865  0.58957505  1
  P  P5  1  0.60060501  0.99928635  0.96469635  1
  P  P6  1  0.01876389  0.65456760  0.94911182  1
  O  O7  1  0.01140479  0.35759017  0.00787758  1
  Co  Co8  1  0.02349086  0.98183966  0.01162295  1
  P  P9  1  0.96135837  0.48218533  0.65196741  1
  O  O10  1  0.88840580  0.69574428  0.97279102  1
  O  O11  1  0.52428228  0.97434521  0.03881340  1
  O  O12  1  0.02464859  0.08137039  0.19433816  1
  P  P13  1  0.01070521  0.60769391  0.58147043  1
  Li  Li14  1  0.98332751  0.40379363  0.00968424  1
  O  O15  1  0.25715950  0.99362803  0.96874154  1
  O  O16  1  0.31626093  0.06316441  0.46495566  1
  O  O17  1  0.52698553  0.98935497  0.61747533  1
  O  O18  1  0.97107667  0.57241005  0.40370429  1
  O  O19  1  0.03985390  0.06363272  0.73870409  1
  P  P20  1  0.33735326  0.99231857  0.03232351  1
  O  O21  1  0.01986197  0.99118757  0.41726881  1
  O  O22  1  0.03356629  0.57334405  0.22882383  1
