# generated using pymatgen
data_Li4MnBiP4WO7
_symmetry_space_group_name_H-M   'P 1'
_cell_length_a   6.65776527
_cell_length_b   6.05106298
_cell_length_c   7.71158030
_cell_angle_alpha   79.30982451
_cell_angle_beta   87.98268472
_cell_angle_gamma   98.80734431
_symmetry_Int_Tables_number   1
_chemical_formula_structural   Li4MnBiP4WO7
_chemical_formula_sum   'Li4 Mn1 Bi1 P4 W1 O7'
_cell_volume   301.03370161
_cell_formula_units_Z   1
loop_
 _symmetry_equiv_pos_site_id
 _symmetry_equiv_pos_as_xyz
  1  'x, y, z'
loop_
 _atom_site_type_symbol
 _atom_site_label
 _atom_site_symmetry_multiplicity
 _atom_site_fract_x
 _atom_site_fract_y
 _atom_site_fract_z
 _atom_site_occupancy
  Li  Li0  1  0.95634723  0.91724384  0.27688679  1
  Li  Li1  1  0.37977633  0.40015894  0.38613576  1
  Li  Li2  1  0.67119604  0.43750471  0.73144007  1
  Li  Li3  1  0.80595815  0.12335639  0.04044960  1
  P  P4  1  0.95115685  0.56160951  0.62392777  1
  Bi  Bi5  1  0.86535162  0.71207947  0.96886432  1
  P  P6  1  0.58257008  0.95846313  0.05088673  1
  W  W7  1  0.03761438  0.09287132  0.17716633  1
  P  P8  1  0.01556841  0.54986471  0.55537736  1
  O  O9  1  0.97675014  0.47222081  0.01783836  1
  O  O10  1  0.24986379  0.97995919  0.96431738  1
  O  O11  1  0.30159032  0.07073678  0.44755360  1
  O  O12  1  0.53480107  0.97419107  0.65133595  1
  P  P13  1  0.96239316  0.53769445  0.38593426  1
  O  O14  1  0.05050676  0.07008199  0.74580336  1
  O  O15  1  0.35723495  0.97936183  0.04218323  1
  O  O16  1  0.02703155  0.97369850  0.35304108  1
  Mn  Mn17  1  0.04203141  0.56140637  0.21161622  1
