# generated using pymatgen
data_Li3V2CrFeP4O9
_symmetry_space_group_name_H-M   'P 1'
_cell_length_a   9.37728039
_cell_length_b   4.97216871
_cell_length_c   7.87861749
_cell_angle_alpha   125.46141779
_cell_angle_beta   75.91444636
_cell_angle_gamma   101.08921262
_symmetry_Int_Tables_number   1
_chemical_formula_structural   Li3V2CrFeP4O9
_chemical_formula_sum   'Li3 V2 Cr1 Fe1 P4 O9'
_cell_volume   289.59908049
_cell_formula_units_Z   1
loop_
 _symmetry_equiv_pos_site_id
 _symmetry_equiv_pos_as_xyz
  1  'x, y, z'
loop_
 _atom_site_type_symbol
 _atom_site_label
 _atom_site_symmetry_multiplicity
 _atom_site_fract_x
 _atom_site_fract_y
 _atom_site_fract_z
 _atom_site_occupancy
  Li  Li0  1  0.96554971  0.95630294  0.24672343  1
  Li  Li1  1  0.46186861  0.39092478  0.30367786  1
  V  V2  1  0.58791769  0.33650121  0.75209361  1
  Li  Li3  1  0.86872071  0.10793291  0.02852995  1
  O  O4  1  0.01219119  0.33887726  0.00733333  1
  V  V5  1  0.02281600  0.98125696  0.01299713  1
  O  O6  1  0.96241194  0.63179779  0.69047254  1
  O  O7  1  0.88407856  0.81232566  0.97221476  1
  O  O8  1  0.67061293  0.97132921  0.03627380  1
  P  P9  1  0.02696631  0.08374999  0.11479875  1
  Cr  Cr10  1  0.01129023  0.44229665  0.58526307  1
  P  P11  1  0.98226780  0.47429463  0.00872792  1
  O  O12  1  0.23959352  0.99120581  0.96843445  1
  O  O13  1  0.29125601  0.06446091  0.57207996  1
  P  P14  1  0.60982168  0.98882294  0.55382079  1
  Fe  Fe15  1  0.97027719  0.44722179  0.32557875  1
  O  O16  1  0.03494204  0.06459832  0.75542384  1
  O  O17  1  0.41056406  0.98922062  0.02660586  1
  O  O18  1  0.01981060  0.98501903  0.32195237  1
  P  P19  1  0.03292781  0.46844888  0.26592702  1
