# generated using pymatgen
data_Li3CoP5W2O7
_symmetry_space_group_name_H-M   'P 1'
_cell_length_a   4.75622291
_cell_length_b   6.96698407
_cell_length_c   6.49249215
_cell_angle_alpha   56.40522152
_cell_angle_beta   74.92589755
_cell_angle_gamma   99.04533953
_symmetry_Int_Tables_number   1
_chemical_formula_structural   Li3CoP5W2O7
_chemical_formula_sum   'Li3 Co1 P5 W2 O7'
_cell_volume   160.45404393
_cell_formula_units_Z   1
loop_
 _symmetry_equiv_pos_site_id
 _symmetry_equiv_pos_as_xyz
  1  'x, y, z'
loop_
 _atom_site_type_symbol
 _atom_site_label
 _atom_site_symmetry_multiplicity
 _atom_site_fract_x
 _atom_site_fract_y
 _atom_site_fract_z
 _atom_site_occupancy
  Li  Li0  1  0.94891506  0.84950221  0.35940924  1
  Li  Li1  1  0.31687608  0.45992476  0.51852506  1
  Li  Li2  1  0.70806110  0.59309649  0.71467322  1
  W  W3  1  0.70563275  0.13540256  0.05734035  1
  W  W4  1  0.94050312  0.42606682  0.55904031  1
  O  O5  1  0.85164565  0.55534726  0.96705800  1
  P  P6  1  0.44587451  0.95047563  0.06624375  1
  P  P7  1  0.04029298  0.09799944  0.30035204  1
  Co  Co8  1  0.01848336  0.70246881  0.51318836  1
  O  O9  1  0.97274840  0.44544527  0.02680354  1
  O  O10  1  0.28879452  0.97280800  0.96055156  1
  P  P11  1  0.38221088  0.07717796  0.36694780  1
  O  O12  1  0.43290284  0.96552551  0.67263269  1
  P  P13  1  0.95642221  0.66337425  0.43884155  1
  O  O14  1  0.06430062  0.07428968  0.69214618  1
  P  P15  1  0.29762423  0.97161835  0.06024715  1
  O  O16  1  0.03299174  0.97311282  0.44008756  1
  O  O17  1  0.04911443  0.66434175  0.20099184  1
