# generated using pymatgen
data_Li4MnCrNiP4KrO6
_symmetry_space_group_name_H-M   'P 1'
_cell_length_a   7.23134616
_cell_length_b   3.95029962
_cell_length_c   2.93808717
_cell_angle_alpha   123.82825593
_cell_angle_beta   83.10669900
_cell_angle_gamma   95.47070159
_symmetry_Int_Tables_number   1
_chemical_formula_structural   Li4MnCrNiP4KrO6
_chemical_formula_sum   'Li4 Mn1 Cr1 Ni1 P4 Kr1 O6'
_cell_volume   69.17556428
_cell_formula_units_Z   1
loop_
 _symmetry_equiv_pos_site_id
 _symmetry_equiv_pos_as_xyz
  1  'x, y, z'
loop_
 _atom_site_type_symbol
 _atom_site_label
 _atom_site_symmetry_multiplicity
 _atom_site_fract_x
 _atom_site_fract_y
 _atom_site_fract_z
 _atom_site_occupancy
  Li  Li0  1  0.95244706  0.93427968  0.29305825  1
  Li  Li1  1  0.43465483  0.43007573  0.33084807  1
  Li  Li2  1  0.59403116  0.35401371  0.72887331  1
  Li  Li3  1  0.84321123  0.12778038  0.04222099  1
  Mn  Mn4  1  0.94978982  0.59218210  0.67031687  1
  O  O5  1  0.86360520  0.79571438  0.96725559  1
  P  P6  1  0.65293211  0.95341146  0.05273595  1
  O  O7  1  0.03718722  0.09719259  0.14589296  1
  P  P8  1  0.01725614  0.47229254  0.57884914  1
  Cr  Cr9  1  0.97523278  0.46174234  0.01914892  1
  O  O10  1  0.26514500  0.97717619  0.96232629  1
  O  O11  1  0.30040464  0.07262917  0.54180592  1
  O  O12  1  0.57683992  0.97239101  0.55798501  1
  O  O13  1  0.95971972  0.48372084  0.34487626  1
  Kr  Kr14  1  0.04842997  0.07407396  0.74320662  1
  P  P15  1  0.39738175  0.97742164  0.04034203  1
  Ni  Ni16  1  0.02816071  0.97065246  0.35263738  1
  P  P17  1  0.04576351  0.48013106  0.27491713  1
