# generated using pymatgen
data_Li3Cr(PO3)4
_symmetry_space_group_name_H-M   'P 1'
_cell_length_a   6.89501344
_cell_length_b   7.11922857
_cell_length_c   6.97878585
_cell_angle_alpha   73.59706707
_cell_angle_beta   75.86586886
_cell_angle_gamma   90.28526951
_symmetry_Int_Tables_number   1
_chemical_formula_structural   Li3Cr(PO3)4
_chemical_formula_sum   'Li3 Cr1 P4 O12'
_cell_volume   317.66944445
_cell_formula_units_Z   1
loop_
 _symmetry_equiv_pos_site_id
 _symmetry_equiv_pos_as_xyz
  1  'x, y, z'
loop_
 _atom_site_type_symbol
 _atom_site_label
 _atom_site_symmetry_multiplicity
 _atom_site_fract_x
 _atom_site_fract_y
 _atom_site_fract_z
 _atom_site_occupancy
  Li  Li0  1  0.96187389  0.94890624  0.34704748  1
  Li  Li1  1  0.35433093  0.42376563  0.31270424  1
  Cr  Cr2  1  0.67905635  0.37800011  0.74581945  1
  Li  Li3  1  0.84545302  0.10737351  0.03354191  1
  O  O4  1  0.01366440  0.29628426  0.01107093  1
  O  O5  1  0.02661852  0.97808981  0.01598086  1
  P  P6  1  0.95960534  0.52781248  0.71908492  1
  P  P7  1  0.87997276  0.76293004  0.97106731  1
  O  O8  1  0.59336579  0.96846592  0.03424891  1
  O  O9  1  0.02688946  0.08735744  0.13946351  1
  O  O10  1  0.01281672  0.51894224  0.63301718  1
  O  O11  1  0.98011005  0.36926880  0.01223756  1
  P  P12  1  0.23368509  0.98898649  0.96661460  1
  O  O13  1  0.29249761  0.06545363  0.53166783  1
  P  P14  1  0.58333290  0.98371208  0.63161308  1
  O  O15  1  0.96810836  0.47434810  0.40884054  1
  O  O16  1  0.03955597  0.06711442  0.76282859  1
  O  O17  1  0.37205690  0.98588800  0.03029237  1
  O  O18  1  0.02244441  0.98491406  0.39024931  1
  O  O19  1  0.03665075  0.46504417  0.22499412  1
