# generated using pymatgen
data_Li4MnVP5O9
_symmetry_space_group_name_H-M   'P 1'
_cell_length_a   5.88052685
_cell_length_b   5.66118648
_cell_length_c   8.70197454
_cell_angle_alpha   65.41337114
_cell_angle_beta   72.30238518
_cell_angle_gamma   65.23987864
_symmetry_Int_Tables_number   1
_chemical_formula_structural   Li4MnVP5O9
_chemical_formula_sum   'Li4 Mn1 V1 P5 O9'
_cell_volume   236.24137566
_cell_formula_units_Z   1
loop_
 _symmetry_equiv_pos_site_id
 _symmetry_equiv_pos_as_xyz
  1  'x, y, z'
loop_
 _atom_site_type_symbol
 _atom_site_label
 _atom_site_symmetry_multiplicity
 _atom_site_fract_x
 _atom_site_fract_y
 _atom_site_fract_z
 _atom_site_occupancy
  Li  Li0  1  0.96534407  0.94917589  0.27078465  1
  Li  Li1  1  0.44779220  0.42011422  0.31340754  1
  Li  Li2  1  0.61632073  0.33733150  0.74028963  1
  Mn  Mn3  1  0.86507159  0.11159198  0.03059363  1
  Li  Li4  1  0.01234993  0.33432597  0.00777532  1
  V  V5  1  0.02241645  0.98023999  0.01387676  1
  O  O6  1  0.95999455  0.61734200  0.70734167  1
  O  O7  1  0.88144922  0.81789243  0.97226870  1
  P  P8  1  0.67750043  0.97018462  0.03681714  1
  O  O9  1  0.02671105  0.08482587  0.11526779  1
  O  O10  1  0.01124207  0.44675642  0.58150351  1
  O  O11  1  0.98218977  0.45425409  0.00866983  1
  P  P12  1  0.28128031  0.99113113  0.96800137  1
  P  P13  1  0.29403117  0.06446555  0.59351695  1
  O  O14  1  0.60907280  0.98722488  0.54697150  1
  P  P15  1  0.96991855  0.45517603  0.31745213  1
  P  P16  1  0.03478125  0.06493609  0.73442948  1
  O  O17  1  0.40199649  0.98891997  0.02592205  1
  O  O18  1  0.01986685  0.98828429  0.34818766  1
  O  O19  1  0.03402074  0.46096525  0.25116777  1
