# generated using pymatgen
data_Li4MnNbP5WO9
_symmetry_space_group_name_H-M   'P 1'
_cell_length_a   7.41717322
_cell_length_b   8.64009937
_cell_length_c   4.59026643
_cell_angle_alpha   86.51949454
_cell_angle_beta   78.74732503
_cell_angle_gamma   85.07486846
_symmetry_Int_Tables_number   1
_chemical_formula_structural   Li4MnNbP5WO9
_chemical_formula_sum   'Li4 Mn1 Nb1 P5 W1 O9'
_cell_volume   287.15647750
_cell_formula_units_Z   1
loop_
 _symmetry_equiv_pos_site_id
 _symmetry_equiv_pos_as_xyz
  1  'x, y, z'
loop_
 _atom_site_type_symbol
 _atom_site_label
 _atom_site_symmetry_multiplicity
 _atom_site_fract_x
 _atom_site_fract_y
 _atom_site_fract_z
 _atom_site_occupancy
  Li  Li0  1  0.96210402  0.91637325  0.35259825  1
  Li  Li1  1  0.35406125  0.44759864  0.41556627  1
  Li  Li2  1  0.66402417  0.48515534  0.74424589  1
  Mn  Mn3  1  0.79307157  0.11004685  0.03559157  1
  Li  Li4  1  0.97075266  0.96430492  0.59680861  1
  Nb  Nb5  1  0.01303366  0.34247571  0.01049641  1
  P  P6  1  0.02622983  0.97537708  0.01453541  1
  O  O7  1  0.95786542  0.48918584  0.64350009  1
  O  O8  1  0.88054073  0.67400235  0.97204190  1
  W  W9  1  0.52887338  0.97204769  0.04203064  1
  P  P10  1  0.02722749  0.08359430  0.20384823  1
  O  O11  1  0.01232079  0.61061645  0.57391757  1
  P  P12  1  0.98126167  0.41264173  0.01258652  1
  O  O13  1  0.24429891  0.98989475  0.96704757  1
  O  O14  1  0.32747638  0.06546988  0.43413207  1
  O  O15  1  0.51833600  0.98338568  0.64547479  1
  O  O16  1  0.96865541  0.58344948  0.40886500  1
  O  O17  1  0.04380605  0.06506006  0.74905175  1
  O  O18  1  0.33408603  0.98792684  0.03346934  1
  P  P19  1  0.02201067  0.98569459  0.41514969  1
  P  P20  1  0.03582455  0.57542819  0.21219727  1
