# generated using pymatgen
data_Li3Fe2P5O8
_symmetry_space_group_name_H-M   'P 1'
_cell_length_a   5.69655164
_cell_length_b   5.21053373
_cell_length_c   5.65202694
_cell_angle_alpha   86.30102926
_cell_angle_beta   96.38615517
_cell_angle_gamma   77.72771070
_symmetry_Int_Tables_number   1
_chemical_formula_structural   Li3Fe2P5O8
_chemical_formula_sum   'Li3 Fe2 P5 O8'
_cell_volume   162.24031056
_cell_formula_units_Z   1
loop_
 _symmetry_equiv_pos_site_id
 _symmetry_equiv_pos_as_xyz
  1  'x, y, z'
loop_
 _atom_site_type_symbol
 _atom_site_label
 _atom_site_symmetry_multiplicity
 _atom_site_fract_x
 _atom_site_fract_y
 _atom_site_fract_z
 _atom_site_occupancy
  Li  Li0  1  0.95002890  0.89348459  0.35561898  1
  Li  Li1  1  0.33480638  0.44108075  0.45256159  1
  P  P2  1  0.66808659  0.51784682  0.72350925  1
  Li  Li3  1  0.75442344  0.12927218  0.05249832  1
  O  O4  1  0.94421089  0.44462541  0.61503923  1
  O  O5  1  0.85721326  0.64254034  0.96695638  1
  P  P6  1  0.48736912  0.95126361  0.05674314  1
  O  O7  1  0.03782959  0.09815301  0.24049297  1
  P  P8  1  0.01856963  0.65507352  0.57738137  1
  P  P9  1  0.97321206  0.43047571  0.02442566  1
  O  O10  1  0.28494143  0.97636026  0.96100116  1
  P  P11  1  0.34458652  0.07468034  0.44418383  1
  O  O12  1  0.49230477  0.96782148  0.65924376  1
  O  O13  1  0.95832282  0.60792094  0.43292573  1
  Fe  Fe14  1  0.05848588  0.07461748  0.69849265  1
  Fe  Fe15  1  0.29954392  0.97227174  0.05099392  1
  O  O16  1  0.03096459  0.97424102  0.44824675  1
  O  O17  1  0.04871580  0.58623832  0.23718131  1
