# generated using pymatgen
data_Li4VNi(PO)7
_symmetry_space_group_name_H-M   'P 1'
_cell_length_a   6.77562221
_cell_length_b   6.33641909
_cell_length_c   4.98885920
_cell_angle_alpha   75.45343773
_cell_angle_beta   61.45435643
_cell_angle_gamma   91.54697081
_symmetry_Int_Tables_number   1
_chemical_formula_structural   Li4VNi(PO)7
_chemical_formula_sum   'Li4 V1 Ni1 P7 O7'
_cell_volume   179.37584165
_cell_formula_units_Z   1
loop_
 _symmetry_equiv_pos_site_id
 _symmetry_equiv_pos_as_xyz
  1  'x, y, z'
loop_
 _atom_site_type_symbol
 _atom_site_label
 _atom_site_symmetry_multiplicity
 _atom_site_fract_x
 _atom_site_fract_y
 _atom_site_fract_z
 _atom_site_occupancy
  Li  Li0  1  0.95923132  0.93316746  0.16818883  1
  Li  Li1  1  0.56406844  0.34847528  0.38032687  1
  Li  Li2  1  0.48909786  0.35498255  0.72496206  1
  Li  Li3  1  0.86247385  0.12810123  0.03710584  1
  P  P4  1  0.01517163  0.47768471  0.01085244  1
  P  P5  1  0.02620592  0.97123581  0.01930965  1
  P  P6  1  0.95557898  0.68203294  0.62086129  1
  O  O7  1  0.87430894  0.80641425  0.96986914  1
  P  P8  1  0.71801239  0.95939207  0.05963930  1
  O  O9  1  0.03703928  0.09034277  0.12064901  1
  P  P10  1  0.01407583  0.43817812  0.49841321  1
  O  O11  1  0.97958118  0.62986875  0.01394784  1
  P  P12  1  0.36177874  0.98612642  0.96549785  1
  Ni  Ni13  1  0.37273371  0.07011221  0.62966043  1
  O  O14  1  0.56897926  0.97919607  0.46998310  1
  V  V15  1  0.96534491  0.50174302  0.23726173  1
  O  O16  1  0.03929931  0.06872908  0.62990934  1
  O  O17  1  0.39970240  0.98333949  0.03466479  1
  O  O18  1  0.02532593  0.97609460  0.29401386  1
  P  P19  1  0.03829644  0.52699661  0.34105980  1
