# generated using pymatgen
data_Li5MnV2NiP6O7
_symmetry_space_group_name_H-M   'P 1'
_cell_length_a   8.35349973
_cell_length_b   7.60256174
_cell_length_c   7.39626668
_cell_angle_alpha   84.16234792
_cell_angle_beta   94.31442474
_cell_angle_gamma   100.13124111
_symmetry_Int_Tables_number   1
_chemical_formula_structural   Li5MnV2NiP6O7
_chemical_formula_sum   'Li5 Mn1 V2 Ni1 P6 O7'
_cell_volume   459.21079327
_cell_formula_units_Z   1
loop_
 _symmetry_equiv_pos_site_id
 _symmetry_equiv_pos_as_xyz
  1  'x, y, z'
loop_
 _atom_site_type_symbol
 _atom_site_label
 _atom_site_symmetry_multiplicity
 _atom_site_fract_x
 _atom_site_fract_y
 _atom_site_fract_z
 _atom_site_occupancy
  Li  Li0  1  0.96319664  0.88927257  0.19523621  1
  Li  Li1  1  0.45664668  0.40445548  0.49348214  1
  Li  Li2  1  0.55933297  0.49952099  0.72748947  1
  Li  Li3  1  0.79478163  0.12581664  0.03408438  1
  V  V4  1  0.97120672  0.95042193  0.64835244  1
  Li  Li5  1  0.56534809  0.99608153  0.96353352  1
  V  V6  1  0.01256677  0.49460959  0.00886839  1
  O  O7  1  0.02525179  0.97288519  0.01388478  1
  P  P8  1  0.95647287  0.56140769  0.55521232  1
  P  P9  1  0.87917382  0.66640055  0.97192150  1
  P  P10  1  0.59342653  0.96738052  0.05957839  1
  P  P11  1  0.03263774  0.08312564  0.20309708  1
  P  P12  1  0.01162812  0.61053544  0.46271929  1
  P  P13  1  0.98194689  0.59095377  0.01162608  1
  O  O14  1  0.36224073  0.99031579  0.96754581  1
  Ni  Ni15  1  0.40187731  0.06739888  0.47593114  1
  Mn  Mn16  1  0.47324184  0.98266971  0.58666706  1
  O  O17  1  0.96910012  0.63522530  0.29366404  1
  O  O18  1  0.04201936  0.06486183  0.63517982  1
  O  O19  1  0.32245085  0.98720533  0.03784635  1
  O  O20  1  0.02363826  0.98283249  0.32993579  1
  O  O21  1  0.03558347  0.63515383  0.25530580  1
