# generated using pymatgen
data_Li3MnCrCo(PO3)3
_symmetry_space_group_name_H-M   'P 1'
_cell_length_a   4.78642454
_cell_length_b   6.35907835
_cell_length_c   8.94547141
_cell_angle_alpha   94.82214611
_cell_angle_beta   67.25949083
_cell_angle_gamma   92.48938309
_symmetry_Int_Tables_number   1
_chemical_formula_structural   Li3MnCrCo(PO3)3
_chemical_formula_sum   'Li3 Mn1 Cr1 Co1 P3 O9'
_cell_volume   250.20365682
_cell_formula_units_Z   1
loop_
 _symmetry_equiv_pos_site_id
 _symmetry_equiv_pos_as_xyz
  1  'x, y, z'
loop_
 _atom_site_type_symbol
 _atom_site_label
 _atom_site_symmetry_multiplicity
 _atom_site_fract_x
 _atom_site_fract_y
 _atom_site_fract_z
 _atom_site_occupancy
  Li  Li0  1  0.95153165  0.88738680  0.26979691  1
  Li  Li1  1  0.44546828  0.44661823  0.45081031  1
  Cr  Cr2  1  0.57912636  0.46169448  0.71062076  1
  Li  Li3  1  0.78578115  0.13873397  0.05091127  1
  P  P4  1  0.94457817  0.52632457  0.59286916  1
  O  O5  1  0.85631192  0.69214010  0.96718884  1
  Co  Co6  1  0.59205925  0.94955707  0.06796280  1
  O  O7  1  0.03981919  0.09796014  0.21125834  1
  Mn  Mn8  1  0.01746546  0.56960118  0.50499427  1
  O  O9  1  0.97430903  0.52119225  0.02184076  1
  P  P10  1  0.35074273  0.97694182  0.96156818  1
  O  O11  1  0.37753436  0.07613113  0.51493418  1
  O  O12  1  0.49562809  0.96875000  0.54658473  1
  O  O13  1  0.95841104  0.59112424  0.32748821  1
  O  O14  1  0.05322273  0.07386003  0.64367032  1
  P  P15  1  0.35465327  0.97381294  0.05000484  1
  O  O16  1  0.03053686  0.97235715  0.36640731  1
  O  O17  1  0.04840047  0.59119612  0.26258659  1
