# generated using pymatgen
data_Li2MnFeNiP5O8
_symmetry_space_group_name_H-M   'P 1'
_cell_length_a   4.66591147
_cell_length_b   5.80673226
_cell_length_c   6.68824142
_cell_angle_alpha   61.72540857
_cell_angle_beta   97.99848076
_cell_angle_gamma   62.74218213
_symmetry_Int_Tables_number   1
_chemical_formula_structural   Li2MnFeNiP5O8
_chemical_formula_sum   'Li2 Mn1 Fe1 Ni1 P5 O8'
_cell_volume   126.34230331
_cell_formula_units_Z   1
loop_
 _symmetry_equiv_pos_site_id
 _symmetry_equiv_pos_as_xyz
  1  'x, y, z'
loop_
 _atom_site_type_symbol
 _atom_site_label
 _atom_site_symmetry_multiplicity
 _atom_site_fract_x
 _atom_site_fract_y
 _atom_site_fract_z
 _atom_site_occupancy
  Li  Li0  1  0.95357096  0.90818387  0.28137845  1
  Li  Li1  1  0.42288068  0.40652889  0.41143769  1
  Mn  Mn2  1  0.64481139  0.45130676  0.72610825  1
  Ni  Ni3  1  0.80285430  0.12757924  0.04501505  1
  O  O4  1  0.94737703  0.54467475  0.62863392  1
  O  O5  1  0.86602563  0.71449476  0.96826547  1
  O  O6  1  0.58425045  0.95619357  0.05582644  1
  P  P7  1  0.03756541  0.09437448  0.19576186  1
  P  P8  1  0.01650060  0.56702143  0.55075765  1
  P  P9  1  0.97527730  0.48174298  0.01918380  1
  O  O10  1  0.30154485  0.98113149  0.96267533  1
  O  O11  1  0.35475647  0.07301216  0.51339877  1
  Fe  Fe12  1  0.52176160  0.97353262  0.61699015  1
  O  O13  1  0.96085882  0.54907489  0.36669552  1
  P  P14  1  0.05027245  0.07167330  0.70574194  1
  O  O15  1  0.35142863  0.97668701  0.04475610  1
  P  P16  1  0.02854809  0.97381663  0.37673482  1
  O  O17  1  0.04414387  0.56020737  0.24346146  1
