# generated using pymatgen
data_Li3MnVCoNiSnP3O8
_symmetry_space_group_name_H-M   'P 1'
_cell_length_a   6.72331401
_cell_length_b   6.17454920
_cell_length_c   7.03193100
_cell_angle_alpha   69.70974200
_cell_angle_beta   72.57985872
_cell_angle_gamma   89.85960767
_symmetry_Int_Tables_number   1
_chemical_formula_structural   Li3MnVCoNiSnP3O8
_chemical_formula_sum   'Li3 Mn1 V1 Co1 Ni1 Sn1 P3 O8'
_cell_volume   259.56608828
_cell_formula_units_Z   1
loop_
 _symmetry_equiv_pos_site_id
 _symmetry_equiv_pos_as_xyz
  1  'x, y, z'
loop_
 _atom_site_type_symbol
 _atom_site_label
 _atom_site_symmetry_multiplicity
 _atom_site_fract_x
 _atom_site_fract_y
 _atom_site_fract_z
 _atom_site_occupancy
  Li  Li0  1  0.95696425  0.93148100  0.26938117  1
  Li  Li1  1  0.42846707  0.40503612  0.34183693  1
  Li  Li2  1  0.62914401  0.37049264  0.73029435  1
  Sn  Sn3  1  0.84657127  0.12171347  0.03961365  1
  V  V4  1  0.02888023  0.96903282  0.02024958  1
  Co  Co5  1  0.95279753  0.62336296  0.66319883  1
  O  O6  1  0.86851627  0.78651494  0.96933818  1
  Ni  Ni7  1  0.64814633  0.96005303  0.04838608  1
  P  P8  1  0.03366139  0.09225707  0.14540018  1
  P  P9  1  0.01508913  0.46521541  0.56549662  1
  O  O10  1  0.97741205  0.48970860  0.01529781  1
  P  P11  1  0.27174380  0.98418176  0.96439040  1
  O  O12  1  0.30316055  0.06998516  0.55757409  1
  O  O13  1  0.57702363  0.97549093  0.56020159  1
  Mn  Mn14  1  0.96364409  0.48954102  0.32764801  1
  O  O15  1  0.04376818  0.06973037  0.73272902  1
  O  O16  1  0.39745933  0.98044884  0.03650424  1
  O  O17  1  0.02510118  0.97733736  0.35598212  1
  O  O18  1  0.04007509  0.49930450  0.25026694  1
