# generated using pymatgen
data_Li3P8O7
_symmetry_space_group_name_H-M   'P 1'
_cell_length_a   2.68803838
_cell_length_b   6.21547454
_cell_length_c   6.60533239
_cell_angle_alpha   84.23327754
_cell_angle_beta   89.51759716
_cell_angle_gamma   79.92732201
_symmetry_Int_Tables_number   1
_chemical_formula_structural   Li3P8O7
_chemical_formula_sum   'Li3 P8 O7'
_cell_volume   108.10256306
_cell_formula_units_Z   1
loop_
 _symmetry_equiv_pos_site_id
 _symmetry_equiv_pos_as_xyz
  1  'x, y, z'
loop_
 _atom_site_type_symbol
 _atom_site_label
 _atom_site_symmetry_multiplicity
 _atom_site_fract_x
 _atom_site_fract_y
 _atom_site_fract_z
 _atom_site_occupancy
  Li  Li0  1  0.95463616  0.91438556  0.24163161  1
  Li  Li1  1  0.42316815  0.41356438  0.38320950  1
  Li  Li2  1  0.60023022  0.43035802  0.72893208  1
  P  P3  1  0.81325090  0.12761679  0.04092194  1
  P  P4  1  0.94898045  0.59984332  0.61649913  1
  O  O5  1  0.86118019  0.74774581  0.96811539  1
  O  O6  1  0.61855769  0.95552814  0.05632479  1
  O  O7  1  0.03888006  0.09562048  0.16954505  1
  P  P8  1  0.01606983  0.52090544  0.53915519  1
  O  O9  1  0.97609997  0.51627493  0.01822445  1
  P  P10  1  0.28356838  0.97929037  0.96331209  1
  O  O11  1  0.32528543  0.07311338  0.51093799  1
  O  O12  1  0.54219091  0.97338992  0.58536196  1
  P  P13  1  0.96103221  0.52803779  0.33986759  1
  P  P14  1  0.05044432  0.07214785  0.72319549  1
  P  P15  1  0.37553009  0.97654229  0.04164024  1
  P  P16  1  0.02724732  0.97340977  0.34605092  1
  O  O17  1  0.04419023  0.55465382  0.25677592  1
