# generated using pymatgen
data_Li4CrP2O13
_symmetry_space_group_name_H-M   'P 1'
_cell_length_a   9.32911230
_cell_length_b   6.82175232
_cell_length_c   4.97408861
_cell_angle_alpha   77.98622555
_cell_angle_beta   98.72793699
_cell_angle_gamma   86.98780406
_symmetry_Int_Tables_number   1
_chemical_formula_structural   Li4CrP2O13
_chemical_formula_sum   'Li4 Cr1 P2 O13'
_cell_volume   304.87563197
_cell_formula_units_Z   1
loop_
 _symmetry_equiv_pos_site_id
 _symmetry_equiv_pos_as_xyz
  1  'x, y, z'
loop_
 _atom_site_type_symbol
 _atom_site_label
 _atom_site_symmetry_multiplicity
 _atom_site_fract_x
 _atom_site_fract_y
 _atom_site_fract_z
 _atom_site_occupancy
  Li  Li0  1  0.96204007  0.91876018  0.28457138  1
  Li  Li1  1  0.40181953  0.44479969  0.39712277  1
  Li  Li2  1  0.60978019  0.42554516  0.73502749  1
  Li  Li3  1  0.82288951  0.11623467  0.03510265  1
  O  O4  1  0.01303153  0.37508383  0.01007581  1
  P  P5  1  0.02567123  0.97671515  0.01514611  1
  O  O6  1  0.95790809  0.53563440  0.64175850  1
  O  O7  1  0.87791491  0.72517890  0.97174585  1
  Cr  Cr8  1  0.58388299  0.96548980  0.04473397  1
  O  O9  1  0.02862215  0.08502813  0.17667714  1
  O  O10  1  0.01207600  0.55095422  0.54862261  1
  O  O11  1  0.98126984  0.47260967  0.01151677  1
  O  O12  1  0.28824383  0.98973972  0.96721327  1
  O  O13  1  0.33655271  0.06547903  0.49628630  1
  P  P14  1  0.52246296  0.98519182  0.58685005  1
  O  O15  1  0.96800733  0.55892020  0.34713545  1
  O  O16  1  0.04073033  0.06587452  0.71407491  1
  O  O17  1  0.35895932  0.98711187  0.03550600  1
  O  O18  1  0.02169292  0.98557901  0.36765772  1
  O  O19  1  0.03608923  0.55358481  0.24147089  1
