# generated using pymatgen
data_Li4FeP4WO9
_symmetry_space_group_name_H-M   'P 1'
_cell_length_a   5.78838595
_cell_length_b   6.05390995
_cell_length_c   4.02311292
_cell_angle_alpha   73.83807793
_cell_angle_beta   83.82186183
_cell_angle_gamma   66.80466480
_symmetry_Int_Tables_number   1
_chemical_formula_structural   Li4FeP4WO9
_chemical_formula_sum   'Li4 Fe1 P4 W1 O9'
_cell_volume   124.46205571
_cell_formula_units_Z   1
loop_
 _symmetry_equiv_pos_site_id
 _symmetry_equiv_pos_as_xyz
  1  'x, y, z'
loop_
 _atom_site_type_symbol
 _atom_site_label
 _atom_site_symmetry_multiplicity
 _atom_site_fract_x
 _atom_site_fract_y
 _atom_site_fract_z
 _atom_site_occupancy
  Li  Li0  1  0.95589894  0.92734361  0.36977926  1
  Li  Li1  1  0.43512440  0.47242263  0.37109283  1
  Li  Li2  1  0.54441637  0.40734243  0.73341572  1
  Li  Li3  1  0.81895536  0.11904519  0.04830106  1
  O  O4  1  0.03180476  0.96806383  0.02317163  1
  P  P5  1  0.95152193  0.50568217  0.67207873  1
  Fe  Fe6  1  0.86750841  0.76024818  0.96834922  1
  O  O7  1  0.58078742  0.95653462  0.04932800  1
  O  O8  1  0.03146809  0.09426393  0.18891093  1
  O  O9  1  0.01666706  0.54034370  0.59352034  1
  O  O10  1  0.97587180  0.43526646  0.01884685  1
  P  P11  1  0.25688139  0.98122394  0.96304595  1
  P  P12  1  0.31160370  0.07220499  0.55300635  1
  O  O13  1  0.55101019  0.97640675  0.50732702  1
  O  O14  1  0.96223044  0.54737484  0.37719181  1
  O  O15  1  0.04766541  0.07187206  0.71511817  1
  P  P16  1  0.37369871  0.97803700  0.03970397  1
  O  O17  1  0.02617436  0.97578406  0.42603245  1
  W  W18  1  0.04503901  0.50859672  0.30299270  1
