# generated using pymatgen
data_Li4CoSb(P2O5)2
_symmetry_space_group_name_H-M   'P 1'
_cell_length_a   6.52224476
_cell_length_b   8.00644493
_cell_length_c   11.31935708
_cell_angle_alpha   82.38764797
_cell_angle_beta   87.84652000
_cell_angle_gamma   65.05415706
_symmetry_Int_Tables_number   1
_chemical_formula_structural   Li4CoSb(P2O5)2
_chemical_formula_sum   'Li4 Co1 Sb1 P4 O10'
_cell_volume   531.11806342
_cell_formula_units_Z   1
loop_
 _symmetry_equiv_pos_site_id
 _symmetry_equiv_pos_as_xyz
  1  'x, y, z'
loop_
 _atom_site_type_symbol
 _atom_site_label
 _atom_site_symmetry_multiplicity
 _atom_site_fract_x
 _atom_site_fract_y
 _atom_site_fract_z
 _atom_site_occupancy
  Li  Li0  1  0.96152008  0.92388076  0.30139816  1
  Li  Li1  1  0.44953772  0.44661173  0.38887054  1
  Li  Li2  1  0.57609111  0.40751225  0.73489916  1
  Li  Li3  1  0.82816774  0.11898730  0.03808844  1
  O  O4  1  0.01405724  0.38097459  0.01185823  1
  P  P5  1  0.02720118  0.97615433  0.01812132  1
  P  P6  1  0.95616490  0.52068794  0.65598375  1
  O  O7  1  0.87726378  0.75283152  0.97089773  1
  P  P8  1  0.60994703  0.96127808  0.04501893  1
  Sb  Sb9  1  0.02868040  0.08753441  0.17096041  1
  O  O10  1  0.01321715  0.52268219  0.55792177  1
  Co  Co11  1  0.97985291  0.46575478  0.01300113  1
  O  O12  1  0.30293220  0.98802322  0.96636826  1
  O  O13  1  0.33881611  0.06830806  0.55173278  1
  O  O14  1  0.53881252  0.98341638  0.53413522  1
  O  O15  1  0.96661401  0.54835278  0.32813671  1
  O  O16  1  0.04111088  0.06768297  0.68907911  1
  O  O17  1  0.35938781  0.98498476  0.03372724  1
  O  O18  1  0.02284483  0.98462731  0.38589960  1
  P  P19  1  0.03971950  0.52908796  0.28250441  1
