# generated using pymatgen
data_Li3MnV(PO2)5
_symmetry_space_group_name_H-M   'P 1'
_cell_length_a   10.10867303
_cell_length_b   4.28948657
_cell_length_c   5.28802997
_cell_angle_alpha   64.31388978
_cell_angle_beta   46.70045588
_cell_angle_gamma   60.50752288
_symmetry_Int_Tables_number   1
_chemical_formula_structural   Li3MnV(PO2)5
_chemical_formula_sum   'Li3 Mn1 V1 P5 O10'
_cell_volume   143.58087560
_cell_formula_units_Z   1
loop_
 _symmetry_equiv_pos_site_id
 _symmetry_equiv_pos_as_xyz
  1  'x, y, z'
loop_
 _atom_site_type_symbol
 _atom_site_label
 _atom_site_symmetry_multiplicity
 _atom_site_fract_x
 _atom_site_fract_y
 _atom_site_fract_z
 _atom_site_occupancy
  Li  Li0  1  0.96486133  0.94943750  0.18744236  1
  Li  Li1  1  0.53991270  0.37475795  0.31503481  1
  V  V2  1  0.50707316  0.31157598  0.73698467  1
  Li  Li3  1  0.88153708  0.11946523  0.02903143  1
  P  P4  1  0.01298035  0.39880025  0.00779254  1
  Mn  Mn5  1  0.02276897  0.97848320  0.01516421  1
  P  P6  1  0.96053672  0.67310584  0.68466091  1
  O  O7  1  0.88217914  0.85200202  0.97183132  1
  P  P8  1  0.73813564  0.96405780  0.04272041  1
  O  O9  1  0.02924763  0.08537132  0.10016481  1
  O  O10  1  0.01180073  0.40249649  0.55247724  1
  O  O11  1  0.98179287  0.55804783  0.00899018  1
  O  O12  1  0.33485091  0.99100077  0.96766949  1
  O  O13  1  0.31341192  0.06656450  0.66258001  1
  O  O14  1  0.61412603  0.98657858  0.48737466  1
  O  O15  1  0.96856040  0.44920370  0.23760362  1
  O  O16  1  0.03342985  0.06622593  0.67931384  1
  O  O17  1  0.39915529  0.98779309  0.02627083  1
  P  P18  1  0.02116468  0.98525298  0.31955728  1
  P  P19  1  0.03487803  0.45750991  0.33069289  1
