# generated using pymatgen
data_Li5VZnCr(PO3)3
_symmetry_space_group_name_H-M   'P 1'
_cell_length_a   6.88837806
_cell_length_b   5.77692123
_cell_length_c   4.36338798
_cell_angle_alpha   69.22937769
_cell_angle_beta   41.07042452
_cell_angle_gamma   75.94209910
_symmetry_Int_Tables_number   1
_chemical_formula_structural   Li5VZnCr(PO3)3
_chemical_formula_sum   'Li5 V1 Zn1 Cr1 P3 O9'
_cell_volume   106.57719602
_cell_formula_units_Z   1
loop_
 _symmetry_equiv_pos_site_id
 _symmetry_equiv_pos_as_xyz
  1  'x, y, z'
loop_
 _atom_site_type_symbol
 _atom_site_label
 _atom_site_symmetry_multiplicity
 _atom_site_fract_x
 _atom_site_fract_y
 _atom_site_fract_z
 _atom_site_occupancy
  Li  Li0  1  0.96132863  0.93771666  0.20288184  1
  Li  Li1  1  0.50380051  0.38410980  0.33136234  1
  Li  Li2  1  0.58167553  0.33642510  0.73267931  1
  Li  Li3  1  0.86316431  0.12358215  0.03251476  1
  O  O4  1  0.01467309  0.39769202  0.01029371  1
  V  V5  1  0.02550626  0.97353518  0.01758164  1
  Li  Li6  1  0.95658839  0.65982980  0.66007501  1
  P  P7  1  0.87541670  0.81727624  0.97061533  1
  O  O8  1  0.71048951  0.96108246  0.04997103  1
  O  O9  1  0.03420547  0.08871049  0.11505511  1
  Cr  Cr10  1  0.01329011  0.42698699  0.53604186  1
  P  P11  1  0.97973329  0.55226785  0.01190341  1
  O  O12  1  0.31743440  0.98615843  0.96624535  1
  O  O13  1  0.31994256  0.06752777  0.58649737  1
  P  P14  1  0.60129052  0.98090893  0.53115290  1
  O  O15  1  0.96610755  0.46702015  0.26678398  1
  O  O16  1  0.03853590  0.06766023  0.70306462  1
  O  O17  1  0.41287166  0.98353851  0.03051966  1
  O  O18  1  0.02279902  0.98051089  0.30485782  1
  Zn  Zn19  1  0.03780360  0.47918504  0.29813913  1
