# generated using pymatgen
data_Li4V(PO2)5
_symmetry_space_group_name_H-M   'P 1'
_cell_length_a   10.33115433
_cell_length_b   9.47594355
_cell_length_c   5.90612713
_cell_angle_alpha   83.19178196
_cell_angle_beta   52.48044882
_cell_angle_gamma   91.10607158
_symmetry_Int_Tables_number   1
_chemical_formula_structural   Li4V(PO2)5
_chemical_formula_sum   'Li4 V1 P5 O10'
_cell_volume   452.27491612
_cell_formula_units_Z   1
loop_
 _symmetry_equiv_pos_site_id
 _symmetry_equiv_pos_as_xyz
  1  'x, y, z'
loop_
 _atom_site_type_symbol
 _atom_site_label
 _atom_site_symmetry_multiplicity
 _atom_site_fract_x
 _atom_site_fract_y
 _atom_site_fract_z
 _atom_site_occupancy
  Li  Li0  1  0.96411818  0.91414911  0.14356197  1
  Li  Li1  1  0.56553268  0.34630141  0.44520426  1
  Li  Li2  1  0.50796026  0.39118978  0.72409064  1
  Li  Li3  1  0.85170776  0.12930472  0.03353287  1
  O  O4  1  0.01262733  0.52294046  0.00692804  1
  V  V5  1  0.02359627  0.97747916  0.01508798  1
  P  P6  1  0.95812553  0.65643692  0.58031225  1
  P  P7  1  0.88246721  0.76482755  0.97182834  1
  P  P8  1  0.70410055  0.96244198  0.05962666  1
  O  O9  1  0.03413791  0.08458661  0.13948703  1
  O  O10  1  0.01183101  0.47713372  0.46147883  1
  P  P11  1  0.98208636  0.67537588  0.00959403  1
  P  P12  1  0.42625615  0.99220335  0.96765435  1
  O  O13  1  0.39321432  0.06725131  0.61847156  1
  O  O14  1  0.52671766  0.98470116  0.48382127  1
  O  O15  1  0.96906596  0.55971688  0.20894060  1
  O  O16  1  0.03658361  0.06523526  0.59062648  1
  O  O17  1  0.35602084  0.98854232  0.03363881  1
  O  O18  1  0.02194707  0.98499298  0.29760265  1
  O  O19  1  0.03456705  0.58117694  0.33783337  1
