# generated using pymatgen
data_Li4CuNi(PO)7
_symmetry_space_group_name_H-M   'P 1'
_cell_length_a   8.69712943
_cell_length_b   5.47022503
_cell_length_c   4.70847211
_cell_angle_alpha   101.20818850
_cell_angle_beta   78.13371806
_cell_angle_gamma   97.35491475
_symmetry_Int_Tables_number   1
_chemical_formula_structural   Li4CuNi(PO)7
_chemical_formula_sum   'Li4 Cu1 Ni1 P7 O7'
_cell_volume   214.13229212
_cell_formula_units_Z   1
loop_
 _symmetry_equiv_pos_site_id
 _symmetry_equiv_pos_as_xyz
  1  'x, y, z'
loop_
 _atom_site_type_symbol
 _atom_site_label
 _atom_site_symmetry_multiplicity
 _atom_site_fract_x
 _atom_site_fract_y
 _atom_site_fract_z
 _atom_site_occupancy
  Li  Li0  1  0.96532959  0.94612235  0.33213103  1
  Li  Li1  1  0.41176164  0.43363667  0.32333767  1
  Cu  Cu2  1  0.61159092  0.37637359  0.75280261  1
  Li  Li3  1  0.84502357  0.10406125  0.03287072  1
  Li  Li4  1  0.01183909  0.32644227  0.00824542  1
  P  P5  1  0.02316518  0.98052412  0.01268511  1
  O  O6  1  0.96252173  0.52909756  0.70916688  1
  P  P7  1  0.88851374  0.77880293  0.97242218  1
  O  O8  1  0.60466725  0.97023493  0.03450360  1
  Ni  Ni9  1  0.02442663  0.08345996  0.14510483  1
  P  P10  1  0.01106701  0.50245172  0.59851086  1
  O  O11  1  0.98229432  0.40504831  0.00926584  1
  O  O12  1  0.25156865  0.99376643  0.96839064  1
  P  P13  1  0.28926852  0.06316429  0.55935597  1
  P  P14  1  0.58468395  0.98766017  0.56715292  1
  O  O15  1  0.97128910  0.49605536  0.36041126  1
  O  O16  1  0.03504637  0.06417612  0.74430615  1
  O  O17  1  0.38193950  0.99067402  0.02876316  1
  P  P18  1  0.01952179  0.98967630  0.38518414  1
  P  P19  1  0.03326028  0.49237704  0.24791959  1
