# generated using pymatgen
data_Li4CoP6O7
_symmetry_space_group_name_H-M   'P 1'
_cell_length_a   5.47011365
_cell_length_b   5.72723632
_cell_length_c   3.89238042
_cell_angle_alpha   80.06103454
_cell_angle_beta   77.54010496
_cell_angle_gamma   104.85283233
_symmetry_Int_Tables_number   1
_chemical_formula_structural   Li4CoP6O7
_chemical_formula_sum   'Li4 Co1 P6 O7'
_cell_volume   111.68660265
_cell_formula_units_Z   1
loop_
 _symmetry_equiv_pos_site_id
 _symmetry_equiv_pos_as_xyz
  1  'x, y, z'
loop_
 _atom_site_type_symbol
 _atom_site_label
 _atom_site_symmetry_multiplicity
 _atom_site_fract_x
 _atom_site_fract_y
 _atom_site_fract_z
 _atom_site_occupancy
  Li  Li0  1  0.94417232  0.87619084  0.32791013  1
  Li  Li1  1  0.40775001  0.42421365  0.46327642  1
  Li  Li2  1  0.64440954  0.50294727  0.70918930  1
  Li  Li3  1  0.75024694  0.14341536  0.06273074  1
  Co  Co4  1  0.93691039  0.48463923  0.58394825  1
  O  O5  1  0.84389079  0.63566524  0.96363723  1
  O  O6  1  0.52092689  0.94284916  0.07373789  1
  O  O7  1  0.04581673  0.10584107  0.25128216  1
  P  P8  1  0.02264037  0.62603480  0.52992839  1
  P  P9  1  0.96881390  0.48171103  0.03148992  1
  P  P10  1  0.29787374  0.96707416  0.95667714  1
  P  P11  1  0.39195535  0.08184455  0.46526319  1
  P  P12  1  0.47517937  0.95957810  0.60350806  1
  O  O13  1  0.95213777  0.60263538  0.39860469  1
  O  O14  1  0.06500388  0.08000995  0.68637896  1
  O  O15  1  0.34072718  0.96732861  0.06153180  1
  P  P16  1  0.03732075  0.96295768  0.39845988  1
  O  O17  1  0.05611239  0.59839606  0.26441941  1
