# generated using pymatgen
data_Li4MnNiP3WO10
_symmetry_space_group_name_H-M   'P 1'
_cell_length_a   7.02773687
_cell_length_b   7.32404222
_cell_length_c   6.37498276
_cell_angle_alpha   92.23281584
_cell_angle_beta   91.05624512
_cell_angle_gamma   81.34024965
_symmetry_Int_Tables_number   1
_chemical_formula_structural   Li4MnNiP3WO10
_chemical_formula_sum   'Li4 Mn1 Ni1 P3 W1 O10'
_cell_volume   324.11632261
_cell_formula_units_Z   1
loop_
 _symmetry_equiv_pos_site_id
 _symmetry_equiv_pos_as_xyz
  1  'x, y, z'
loop_
 _atom_site_type_symbol
 _atom_site_label
 _atom_site_symmetry_multiplicity
 _atom_site_fract_x
 _atom_site_fract_y
 _atom_site_fract_z
 _atom_site_occupancy
  Li  Li0  1  0.96517938  0.95668936  0.39408174  1
  Li  Li1  1  0.37870786  0.49627030  0.29523316  1
  Li  Li2  1  0.60617739  0.36320210  0.75727296  1
  Li  Li3  1  0.84889233  0.10008712  0.03024247  1
  O  O4  1  0.01203082  0.28099903  0.00853927  1
  P  P5  1  0.02303426  0.98246014  0.01317366  1
  Mn  Mn6  1  0.96359730  0.50232232  0.74065834  1
  O  O7  1  0.88500887  0.80503273  0.97258896  1
  Ni  Ni8  1  0.61148280  0.97104186  0.02913935  1
  O  O9  1  0.02203659  0.08379404  0.13947514  1
  P  P10  1  0.01092395  0.50212556  0.64692944  1
  O  O11  1  0.98232222  0.34772697  0.00884249  1
  O  O12  1  0.22122152  0.99165952  0.96838093  1
  O  O13  1  0.25475881  0.06325891  0.55253524  1
  O  O14  1  0.61066711  0.98977530  0.55767542  1
  W  W15  1  0.97054529  0.46774584  0.40425757  1
  O  O16  1  0.03539843  0.06454856  0.76719624  1
  O  O17  1  0.38784260  0.99020994  0.02617940  1
  P  P18  1  0.01933123  0.99182689  0.42060980  1
  O  O19  1  0.03379746  0.44976959  0.23737577  1
