# generated using pymatgen
data_Li4V(P2O3)3
_symmetry_space_group_name_H-M   'P 1'
_cell_length_a   7.02024242
_cell_length_b   7.95789403
_cell_length_c   7.04893438
_cell_angle_alpha   79.74432051
_cell_angle_beta   79.34937433
_cell_angle_gamma   84.01252324
_symmetry_Int_Tables_number   1
_chemical_formula_structural   Li4V(P2O3)3
_chemical_formula_sum   'Li4 V1 P6 O9'
_cell_volume   379.79116906
_cell_formula_units_Z   1
loop_
 _symmetry_equiv_pos_site_id
 _symmetry_equiv_pos_as_xyz
  1  'x, y, z'
loop_
 _atom_site_type_symbol
 _atom_site_label
 _atom_site_symmetry_multiplicity
 _atom_site_fract_x
 _atom_site_fract_y
 _atom_site_fract_z
 _atom_site_occupancy
  Li  Li0  1  0.96087694  0.93285650  0.27202007  1
  Li  Li1  1  0.42304027  0.44978312  0.35695410  1
  Li  Li2  1  0.60422826  0.38664734  0.73808837  1
  Li  Li3  1  0.83864218  0.11999372  0.03354128  1
  V  V4  1  0.01432244  0.36571008  0.01105642  1
  P  P5  1  0.02577266  0.97376049  0.01627944  1
  O  O6  1  0.95700258  0.58960855  0.65564364  1
  O  O7  1  0.87076473  0.77970719  0.97096032  1
  P  P8  1  0.64242226  0.96316177  0.04584112  1
  O  O9  1  0.03099377  0.08802573  0.14599712  1
  P  P10  1  0.01260418  0.49094814  0.54615927  1
  O  O11  1  0.98007375  0.49104816  0.01226661  1
  P  P12  1  0.26830271  0.98662561  0.96669143  1
  O  O13  1  0.31026441  0.06718369  0.51831424  1
  O  O14  1  0.57675403  0.98165858  0.55471915  1
  P  P15  1  0.96684778  0.50121456  0.32607892  1
  O  O16  1  0.04173364  0.06719229  0.73656011  1
  O  O17  1  0.38188931  0.98451829  0.03396951  1
  O  O18  1  0.02219504  0.98172200  0.33681425  1
  P  P19  1  0.03769810  0.51131463  0.25602716  1
