# generated using pymatgen
data_Li3CoSn(PO2)5
_symmetry_space_group_name_H-M   'P 1'
_cell_length_a   5.41069120
_cell_length_b   7.78088459
_cell_length_c   8.36527310
_cell_angle_alpha   71.41172773
_cell_angle_beta   102.57031271
_cell_angle_gamma   93.47373008
_symmetry_Int_Tables_number   1
_chemical_formula_structural   Li3CoSn(PO2)5
_chemical_formula_sum   'Li3 Co1 Sn1 P5 O10'
_cell_volume   325.78975058
_cell_formula_units_Z   1
loop_
 _symmetry_equiv_pos_site_id
 _symmetry_equiv_pos_as_xyz
  1  'x, y, z'
loop_
 _atom_site_type_symbol
 _atom_site_label
 _atom_site_symmetry_multiplicity
 _atom_site_fract_x
 _atom_site_fract_y
 _atom_site_fract_z
 _atom_site_occupancy
  Li  Li0  1  0.96143395  0.94168800  0.31546503  1
  Li  Li1  1  0.46133807  0.45080200  0.34156290  1
  Sn  Sn2  1  0.56129253  0.36904994  0.74339402  1
  Li  Li3  1  0.84428602  0.11236542  0.03652372  1
  P  P4  1  0.01403595  0.33960369  0.01022739  1
  O  O5  1  0.02581270  0.97662705  0.01709215  1
  O  O6  1  0.95794427  0.55196720  0.68493879  1
  O  O7  1  0.87946355  0.80520135  0.97075611  1
  P  P8  1  0.63288480  0.96465975  0.04155130  1
  O  O9  1  0.02803286  0.08715570  0.15175799  1
  P  P10  1  0.01306892  0.50133467  0.60055417  1
  O  O11  1  0.97994578  0.44953316  0.01215523  1
  Co  Co12  1  0.27484730  0.99007976  0.96619880  1
  O  O13  1  0.28401732  0.06748711  0.59312993  1
  O  O14  1  0.58479041  0.98401839  0.51414365  1
  O  O15  1  0.96787208  0.50448120  0.34269038  1
  O  O16  1  0.04029898  0.06737735  0.72373056  1
  P  P17  1  0.36791578  0.98518056  0.03291763  1
  O  O18  1  0.02192234  0.98423666  0.39852372  1
  P  P19  1  0.03764724  0.48996562  0.29172495  1
