# generated using pymatgen
data_Li4FeCoNiP4O7
_symmetry_space_group_name_H-M   'P 1'
_cell_length_a   5.10760372
_cell_length_b   6.37858096
_cell_length_c   8.09232421
_cell_angle_alpha   84.31181033
_cell_angle_beta   78.01853788
_cell_angle_gamma   76.51405939
_symmetry_Int_Tables_number   1
_chemical_formula_structural   Li4FeCoNiP4O7
_chemical_formula_sum   'Li4 Fe1 Co1 Ni1 P4 O7'
_cell_volume   250.43099375
_cell_formula_units_Z   1
loop_
 _symmetry_equiv_pos_site_id
 _symmetry_equiv_pos_as_xyz
  1  'x, y, z'
loop_
 _atom_site_type_symbol
 _atom_site_label
 _atom_site_symmetry_multiplicity
 _atom_site_fract_x
 _atom_site_fract_y
 _atom_site_fract_z
 _atom_site_occupancy
  Li  Li0  1  0.95414639  0.91631556  0.28341645  1
  Li  Li1  1  0.46302530  0.40634540  0.40009093  1
  Li  Li2  1  0.60394484  0.42184353  0.72048599  1
  Li  Li3  1  0.81559002  0.12650342  0.04900243  1
  O  O4  1  0.94821090  0.56526536  0.63997447  1
  P  P5  1  0.86583036  0.74372756  0.96785736  1
  O  O6  1  0.60887074  0.95499533  0.05522285  1
  Fe  Fe7  1  0.03607533  0.09636857  0.17835282  1
  Co  Co8  1  0.01685769  0.52995902  0.55553991  1
  Ni  Ni9  1  0.97536474  0.49505356  0.01931388  1
  O  O10  1  0.31036636  0.98090959  0.96243209  1
  O  O11  1  0.34337607  0.07343504  0.56607378  1
  P  P12  1  0.53487974  0.97142488  0.55778509  1
  O  O13  1  0.96143728  0.53730959  0.33507872  1
  O  O14  1  0.04857598  0.07213165  0.68341559  1
  P  P15  1  0.37105083  0.97682899  0.04218570  1
  O  O16  1  0.02834240  0.97574186  0.39911497  1
  P  P17  1  0.04494702  0.54315603  0.27841640  1
