# generated using pymatgen
data_Li3Fe(PO4)3
_symmetry_space_group_name_H-M   'P 1'
_cell_length_a   4.30254453
_cell_length_b   6.99363404
_cell_length_c   5.51939960
_cell_angle_alpha   73.27881986
_cell_angle_beta   81.91243708
_cell_angle_gamma   114.15675973
_symmetry_Int_Tables_number   1
_chemical_formula_structural   Li3Fe(PO4)3
_chemical_formula_sum   'Li3 Fe1 P3 O12'
_cell_volume   138.63791900
_cell_formula_units_Z   1
loop_
 _symmetry_equiv_pos_site_id
 _symmetry_equiv_pos_as_xyz
  1  'x, y, z'
loop_
 _atom_site_type_symbol
 _atom_site_label
 _atom_site_symmetry_multiplicity
 _atom_site_fract_x
 _atom_site_fract_y
 _atom_site_fract_z
 _atom_site_occupancy
  Li  Li0  1  0.95370007  0.90907097  0.39348793  1
  Li  Li1  1  0.32289356  0.47055063  0.40928441  1
  Li  Li2  1  0.70321518  0.47069660  0.72481382  1
  Fe  Fe3  1  0.77866900  0.12495753  0.04885851  1
  P  P4  1  0.03347301  0.96711850  0.02387450  1
  O  O5  1  0.94746578  0.44746953  0.64910537  1
  O  O6  1  0.86485225  0.66688073  0.96862024  1
  O  O7  1  0.50355083  0.95790952  0.04931524  1
  O  O8  1  0.03323830  0.09452628  0.22356308  1
  O  O9  1  0.01652355  0.61245483  0.57794088  1
  P  P10  1  0.97541940  0.37418002  0.02010910  1
  O  O11  1  0.24689481  0.97912705  0.96295935  1
  O  O12  1  0.32167697  0.07136958  0.42118758  1
  O  O13  1  0.50887156  0.97262979  0.65091550  1
  O  O14  1  0.96130067  0.57261854  0.45085987  1
  P  P15  1  0.05293472  0.07198954  0.75260890  1
  O  O16  1  0.34144622  0.97849041  0.04468842  1
  O  O17  1  0.02844984  0.97692853  0.41992506  1
  O  O18  1  0.04511397  0.55734831  0.20467836  1
