# generated using pymatgen
data_Li3CrFe(PO4)3
_symmetry_space_group_name_H-M   'P 1'
_cell_length_a   6.70022525
_cell_length_b   5.24516673
_cell_length_c   3.55214202
_cell_angle_alpha   55.73012676
_cell_angle_beta   98.48225786
_cell_angle_gamma   84.46257544
_symmetry_Int_Tables_number   1
_chemical_formula_structural   Li3CrFe(PO4)3
_chemical_formula_sum   'Li3 Cr1 Fe1 P3 O12'
_cell_volume   99.54270572
_cell_formula_units_Z   1
loop_
 _symmetry_equiv_pos_site_id
 _symmetry_equiv_pos_as_xyz
  1  'x, y, z'
loop_
 _atom_site_type_symbol
 _atom_site_label
 _atom_site_symmetry_multiplicity
 _atom_site_fract_x
 _atom_site_fract_y
 _atom_site_fract_z
 _atom_site_occupancy
  Li  Li0  1  0.95978928  0.94152170  0.25273103  1
  Li  Li1  1  0.46270260  0.40431497  0.33791572  1
  Li  Li2  1  0.56289655  0.34978244  0.73242223  1
  Cr  Cr3  1  0.85604793  0.11943316  0.03795861  1
  O  O4  1  0.01448325  0.37225389  0.01183318  1
  O  O5  1  0.02574479  0.97424400  0.01851125  1
  P  P6  1  0.95617020  0.59683454  0.67811912  1
  O  O7  1  0.87518984  0.79749107  0.97056544  1
  P  P8  1  0.66519117  0.96203434  0.04697844  1
  O  O9  1  0.03161572  0.08927785  0.13070458  1
  P  P10  1  0.01350277  0.45711142  0.54898864  1
  O  O11  1  0.97980553  0.49644691  0.01285219  1
  O  O12  1  0.29161048  0.98698336  0.96592408  1
  O  O13  1  0.33788240  0.06768061  0.58514029  1
  O  O14  1  0.57882231  0.98085648  0.53515685  1
  O  O15  1  0.96651244  0.48810992  0.29962063  1
  O  O16  1  0.03892513  0.06824163  0.71455050  1
  O  O17  1  0.39664063  0.98458111  0.03312085  1
  Fe  Fe18  1  0.02322102  0.98098338  0.33657491  1
  O  O19  1  0.03817343  0.48788509  0.27273142  1
