# generated using pymatgen
data_NaLi3MnV(PO)6
_symmetry_space_group_name_H-M   'P 1'
_cell_length_a   5.08623099
_cell_length_b   5.92212047
_cell_length_c   5.94833418
_cell_angle_alpha   54.20160395
_cell_angle_beta   89.42016964
_cell_angle_gamma   79.38686628
_symmetry_Int_Tables_number   1
_chemical_formula_structural   NaLi3MnV(PO)6
_chemical_formula_sum   'Na1 Li3 Mn1 V1 P6 O6'
_cell_volume   141.76161111
_cell_formula_units_Z   1
loop_
 _symmetry_equiv_pos_site_id
 _symmetry_equiv_pos_as_xyz
  1  'x, y, z'
loop_
 _atom_site_type_symbol
 _atom_site_label
 _atom_site_symmetry_multiplicity
 _atom_site_fract_x
 _atom_site_fract_y
 _atom_site_fract_z
 _atom_site_occupancy
  Li  Li0  1  0.94766879  0.86096579  0.33080074  1
  Li  Li1  1  0.40451989  0.45159394  0.49023405  1
  Li  Li2  1  0.62149554  0.53143734  0.70816892  1
  Mn  Mn3  1  0.74126351  0.14090371  0.06076445  1
  P  P4  1  0.93898439  0.44958317  0.58179665  1
  P  P5  1  0.85172927  0.63340241  0.96553755  1
  P  P6  1  0.50924915  0.94608116  0.07048268  1
  V  V7  1  0.04082713  0.10107604  0.27259901  1
  O  O8  1  0.01997834  0.65357763  0.52187359  1
  O  O9  1  0.97119099  0.47841305  0.02759255  1
  Na  Na10  1  0.33074713  0.97265583  0.95887142  1
  O  O11  1  0.39004403  0.07879144  0.47506562  1
  P  P12  1  0.46404853  0.96255207  0.58653361  1
  O  O13  1  0.95515043  0.63161242  0.39082080  1
  P  P14  1  0.06090344  0.07626359  0.65132314  1
  P  P15  1  0.31597292  0.96881133  0.06092455  1
  O  O16  1  0.03459169  0.97030461  0.42728549  1
  O  O17  1  0.05289067  0.62047881  0.25924039  1
