# generated using pymatgen
data_NaLi4P2W2O9
_symmetry_space_group_name_H-M   'P 1'
_cell_length_a   5.99331068
_cell_length_b   8.05791521
_cell_length_c   5.84747160
_cell_angle_alpha   94.90067839
_cell_angle_beta   89.51045364
_cell_angle_gamma   72.57021286
_symmetry_Int_Tables_number   1
_chemical_formula_structural   NaLi4P2W2O9
_chemical_formula_sum   'Na1 Li4 P2 W2 O9'
_cell_volume   268.27106489
_cell_formula_units_Z   1
loop_
 _symmetry_equiv_pos_site_id
 _symmetry_equiv_pos_as_xyz
  1  'x, y, z'
loop_
 _atom_site_type_symbol
 _atom_site_label
 _atom_site_symmetry_multiplicity
 _atom_site_fract_x
 _atom_site_fract_y
 _atom_site_fract_z
 _atom_site_occupancy
  Li  Li0  1  0.95277059  0.89941454  0.42499673  1
  Li  Li1  1  0.33230996  0.47974256  0.43441540  1
  Li  Li2  1  0.69206834  0.51193076  0.72466457  1
  Li  Li3  1  0.74911839  0.12183374  0.05364748  1
  O  O4  1  0.94616210  0.42068580  0.63855284  1
  O  O5  1  0.85839528  0.64763516  0.96731895  1
  P  P6  1  0.46459889  0.95139885  0.04985855  1
  W  W7  1  0.03442971  0.09710255  0.24943970  1
  O  O8  1  0.01757443  0.64924127  0.59656274  1
  O  O9  1  0.97373247  0.37906212  0.02331682  1
  O  O10  1  0.24020681  0.97816002  0.96184039  1
  Na  Na11  1  0.32104102  0.07355258  0.43397430  1
  O  O12  1  0.49636346  0.97142178  0.63458782  1
  W  W13  1  0.95911157  0.60151953  0.45766258  1
  O  O14  1  0.05830037  0.07350248  0.73802549  1
  P  P15  1  0.32710493  0.97475010  0.05043992  1
  O  O16  1  0.02899341  0.97732115  0.46813247  1
  O  O17  1  0.04869652  0.58066428  0.23165293  1
