# generated using pymatgen
data_Li3NiSnP8O7
_symmetry_space_group_name_H-M   'P 1'
_cell_length_a   8.02798568
_cell_length_b   5.72492309
_cell_length_c   6.27024919
_cell_angle_alpha   92.17100072
_cell_angle_beta   67.41581991
_cell_angle_gamma   83.05510659
_symmetry_Int_Tables_number   1
_chemical_formula_structural   Li3NiSnP8O7
_chemical_formula_sum   'Li3 Ni1 Sn1 P8 O7'
_cell_volume   263.00726366
_cell_formula_units_Z   1
loop_
 _symmetry_equiv_pos_site_id
 _symmetry_equiv_pos_as_xyz
  1  'x, y, z'
loop_
 _atom_site_type_symbol
 _atom_site_label
 _atom_site_symmetry_multiplicity
 _atom_site_fract_x
 _atom_site_fract_y
 _atom_site_fract_z
 _atom_site_occupancy
  Li  Li0  1  0.96170074  0.93477863  0.30394334  1
  Li  Li1  1  0.38321623  0.44175151  0.34735334  1
  Li  Li2  1  0.62510574  0.39136866  0.74399328  1
  Ni  Ni3  1  0.83390069  0.11425497  0.03524028  1
  O  O4  1  0.01431392  0.34208927  0.01216678  1
  P  P5  1  0.02709896  0.97630239  0.01687315  1
  P  P6  1  0.95677805  0.53550279  0.67567539  1
  P  P7  1  0.87703127  0.77412343  0.97099048  1
  Sn  Sn8  1  0.61274815  0.96278214  0.03947600  1
  O  O9  1  0.02946443  0.08820495  0.15060368  1
  O  O10  1  0.01296925  0.50917381  0.58481687  1
  O  O11  1  0.97979623  0.43769279  0.01248682  1
  O  O12  1  0.26583385  0.98670226  0.96668494  1
  P  P13  1  0.28996673  0.06715755  0.51882410  1
  P  P14  1  0.58077031  0.98308659  0.59072173  1
  O  O15  1  0.96674943  0.50479287  0.36983046  1
  P  P16  1  0.04084555  0.06735896  0.74710357  1
  P  P17  1  0.35998121  0.98442107  0.03425685  1
  O  O18  1  0.02253469  0.98318946  0.36981082  1
  P  P19  1  0.03776244  0.50288665  0.25171950  1
