# generated using pymatgen
data_Li4VP4O11
_symmetry_space_group_name_H-M   'P 1'
_cell_length_a   7.88903675
_cell_length_b   8.38612497
_cell_length_c   7.37182068
_cell_angle_alpha   110.18817424
_cell_angle_beta   88.51106210
_cell_angle_gamma   57.83177920
_symmetry_Int_Tables_number   1
_chemical_formula_structural   Li4VP4O11
_chemical_formula_sum   'Li4 V1 P4 O11'
_cell_volume   373.73290878
_cell_formula_units_Z   1
loop_
 _symmetry_equiv_pos_site_id
 _symmetry_equiv_pos_as_xyz
  1  'x, y, z'
loop_
 _atom_site_type_symbol
 _atom_site_label
 _atom_site_symmetry_multiplicity
 _atom_site_fract_x
 _atom_site_fract_y
 _atom_site_fract_z
 _atom_site_occupancy
  Li  Li0  1  0.96412390  0.95342314  0.35876709  1
  Li  Li1  1  0.36454275  0.45198500  0.30585492  1
  Li  Li2  1  0.66714722  0.37416929  0.75184929  1
  Li  Li3  1  0.84564883  0.10382055  0.03022888  1
  P  P4  1  0.01229067  0.28241640  0.00906913  1
  O  O5  1  0.02376692  0.98127598  0.01304664  1
  V  V6  1  0.96227634  0.53225690  0.71417856  1
  P  P7  1  0.88506550  0.78034842  0.97210056  1
  O  O8  1  0.59350646  0.97146577  0.03170587  1
  O  O9  1  0.02426076  0.08435938  0.13994955  1
  O  O10  1  0.01120686  0.50198847  0.63426155  1
  O  O11  1  0.98178083  0.36351413  0.00977555  1
  O  O12  1  0.22416273  0.99220377  0.96838909  1
  O  O13  1  0.25998586  0.06296825  0.51828647  1
  O  O14  1  0.59594256  0.98812497  0.61588991  1
  O  O15  1  0.96971649  0.46681800  0.40754187  1
  P  P16  1  0.03754258  0.06481830  0.78919691  1
  O  O17  1  0.38173047  0.98989904  0.02818676  1
  O  O18  1  0.01979961  0.98839056  0.39346245  1
  P  P19  1  0.03421849  0.47388482  0.21893544  1
