# generated using pymatgen
data_Li2MnVBiP6O7
_symmetry_space_group_name_H-M   'P 1'
_cell_length_a   5.52019609
_cell_length_b   4.17481183
_cell_length_c   4.21634390
_cell_angle_alpha   69.62238088
_cell_angle_beta   85.32757992
_cell_angle_gamma   79.27657057
_symmetry_Int_Tables_number   1
_chemical_formula_structural   Li2MnVBiP6O7
_chemical_formula_sum   'Li2 Mn1 V1 Bi1 P6 O7'
_cell_volume   89.48257058
_cell_formula_units_Z   1
loop_
 _symmetry_equiv_pos_site_id
 _symmetry_equiv_pos_as_xyz
  1  'x, y, z'
loop_
 _atom_site_type_symbol
 _atom_site_label
 _atom_site_symmetry_multiplicity
 _atom_site_fract_x
 _atom_site_fract_y
 _atom_site_fract_z
 _atom_site_occupancy
  Li  Li0  1  0.94809294  0.90873176  0.29904491  1
  Li  Li1  1  0.43111268  0.45948148  0.37937871  1
  Mn  Mn2  1  0.56750613  0.41833025  0.72278088  1
  V  V3  1  0.80824876  0.13437748  0.05302387  1
  O  O4  1  0.94255841  0.54365635  0.65505522  1
  Bi  Bi5  1  0.85464984  0.76366657  0.96529627  1
  P  P6  1  0.61097032  0.94619185  0.06223272  1
  P  P7  1  0.04021308  0.10313334  0.18011878  1
  P  P8  1  0.02029063  0.52989072  0.56766903  1
  P  P9  1  0.97080141  0.46906102  0.02454949  1
  P  P10  1  0.30784917  0.97345704  0.95911169  1
  P  P11  1  0.33343330  0.07855277  0.55562752  1
  O  O12  1  0.54536760  0.96578735  0.55956984  1
  O  O13  1  0.95569134  0.52796429  0.35499996  1
  O  O14  1  0.05441391  0.07726550  0.68150657  1
  O  O15  1  0.37939855  0.96852869  0.04637760  1
  O  O16  1  0.03321480  0.96790481  0.40188190  1
  O  O17  1  0.05209002  0.51237166  0.28289247  1
