# generated using pymatgen
data_Li3FeCoP7O8
_symmetry_space_group_name_H-M   'P 1'
_cell_length_a   7.02774166
_cell_length_b   9.30970356
_cell_length_c   8.14258464
_cell_angle_alpha   83.56947330
_cell_angle_beta   58.97133518
_cell_angle_gamma   81.10374966
_symmetry_Int_Tables_number   1
_chemical_formula_structural   Li3FeCoP7O8
_chemical_formula_sum   'Li3 Fe1 Co1 P7 O8'
_cell_volume   450.68868018
_cell_formula_units_Z   1
loop_
 _symmetry_equiv_pos_site_id
 _symmetry_equiv_pos_as_xyz
  1  'x, y, z'
loop_
 _atom_site_type_symbol
 _atom_site_label
 _atom_site_symmetry_multiplicity
 _atom_site_fract_x
 _atom_site_fract_y
 _atom_site_fract_z
 _atom_site_occupancy
  Li  Li0  1  0.95992601  0.92805827  0.38280141  1
  Li  Li1  1  0.33666864  0.43989962  0.37305251  1
  Li  Li2  1  0.71104789  0.45318118  0.74253315  1
  Co  Co3  1  0.80222028  0.11051169  0.04049025  1
  Fe  Fe4  1  0.01441187  0.30347094  0.01399379  1
  O  O5  1  0.02943163  0.97353655  0.01796727  1
  P  P6  1  0.95527232  0.48612297  0.67539394  1
  O  O7  1  0.87585515  0.70609778  0.97036409  1
  P  P8  1  0.52707064  0.96472102  0.03790747  1
  P  P9  1  0.02865933  0.08792889  0.19025651  1
  O  O10  1  0.01394694  0.59019309  0.61637944  1
  P  P11  1  0.97850466  0.36833534  0.01466548  1
  O  O12  1  0.22903553  0.98666543  0.96534944  1
  P  P13  1  0.28916568  0.06764254  0.47236145  1
  O  O14  1  0.54026926  0.97903228  0.65968901  1
  O  O15  1  0.96644521  0.53811431  0.44307300  1
  P  P16  1  0.04667854  0.06805040  0.76669383  1
  P  P17  1  0.33604676  0.98282236  0.03702674  1
  O  O18  1  0.02394974  0.98479265  0.44188553  1
  O  O19  1  0.03871773  0.53865379  0.21060579  1
