# generated using pymatgen
data_Li3Zn2Fe2Sn(PO2)4
_symmetry_space_group_name_H-M   'P 1'
_cell_length_a   7.19140519
_cell_length_b   7.10885233
_cell_length_c   7.72602005
_cell_angle_alpha   76.64493319
_cell_angle_beta   88.35594998
_cell_angle_gamma   98.55226462
_symmetry_Int_Tables_number   1
_chemical_formula_structural   Li3Zn2Fe2Sn(PO2)4
_chemical_formula_sum   'Li3 Zn2 Fe2 Sn1 P4 O8'
_cell_volume   379.20366032
_cell_formula_units_Z   1
loop_
 _symmetry_equiv_pos_site_id
 _symmetry_equiv_pos_as_xyz
  1  'x, y, z'
loop_
 _atom_site_type_symbol
 _atom_site_label
 _atom_site_symmetry_multiplicity
 _atom_site_fract_x
 _atom_site_fract_y
 _atom_site_fract_z
 _atom_site_occupancy
  Li  Li0  1  0.95843643  0.90946180  0.31099692  1
  Li  Li1  1  0.38820645  0.42616192  0.43694210  1
  P  P2  1  0.63699687  0.46998590  0.72959286  1
  Li  Li3  1  0.79737025  0.12261289  0.04046785  1
  Zn  Zn4  1  0.01490663  0.39903402  0.01364442  1
  Sn  Sn5  1  0.02905196  0.96881521  0.01910430  1
  O  O6  1  0.95365721  0.51020205  0.61752057  1
  Fe  Fe7  1  0.87195528  0.68760973  0.97044528  1
  P  P8  1  0.57280427  0.96310073  0.05202949  1
  O  O9  1  0.03180121  0.08853009  0.20195305  1
  O  O10  1  0.01377355  0.59126174  0.53269947  1
  Zn  Zn11  1  0.97880203  0.46304446  0.01661417  1
  O  O12  1  0.28870925  0.98535562  0.96518201  1
  P  P13  1  0.35759446  0.06897140  0.46332902  1
  O  O14  1  0.51354241  0.97750282  0.59565282  1
  O  O15  1  0.96513915  0.58639932  0.36204201  1
  Fe  Fe16  1  0.04566005  0.06759390  0.70626849  1
  O  O17  1  0.33946320  0.98380953  0.04002604  1
  O  O18  1  0.02553821  0.98107392  0.38673228  1
  P  P19  1  0.04107325  0.57794148  0.24072941  1
