# generated using pymatgen
data_Li5P4O11
_symmetry_space_group_name_H-M   'P 1'
_cell_length_a   8.12932195
_cell_length_b   6.86598329
_cell_length_c   5.98268362
_cell_angle_alpha   56.76101172
_cell_angle_beta   75.27575950
_cell_angle_gamma   80.09606099
_symmetry_Int_Tables_number   1
_chemical_formula_structural   Li5P4O11
_chemical_formula_sum   'Li5 P4 O11'
_cell_volume   269.90224688
_cell_formula_units_Z   1
loop_
 _symmetry_equiv_pos_site_id
 _symmetry_equiv_pos_as_xyz
  1  'x, y, z'
loop_
 _atom_site_type_symbol
 _atom_site_label
 _atom_site_symmetry_multiplicity
 _atom_site_fract_x
 _atom_site_fract_y
 _atom_site_fract_z
 _atom_site_occupancy
  Li  Li0  1  0.95459998  0.91312486  0.33856061  1
  Li  Li1  1  0.34690726  0.45537847  0.39428967  1
  Li  Li2  1  0.65227473  0.45511511  0.73545951  1
  Li  Li3  1  0.79721332  0.12243199  0.04323224  1
  P  P4  1  0.01674741  0.34797299  0.01744096  1
  Li  Li5  1  0.03146536  0.96841109  0.02102806  1
  O  O6  1  0.95043701  0.50620282  0.64424080  1
  O  O7  1  0.86337250  0.68425304  0.96938497  1
  O  O8  1  0.53662711  0.96040195  0.04978728  1
  O  O9  1  0.03317716  0.09266049  0.20406355  1
  O  O10  1  0.01567256  0.58398533  0.56544703  1
  P  P11  1  0.97719347  0.42444822  0.01798739  1
  O  O12  1  0.24519199  0.97942632  0.96372497  1
  P  P13  1  0.34131974  0.07037672  0.46531993  1
  O  O14  1  0.51775938  0.97459799  0.62491047  1
  O  O15  1  0.96406275  0.56114924  0.40659046  1
  O  O16  1  0.04967474  0.07075790  0.74170458  1
  O  O17  1  0.34134170  0.97952354  0.04047571  1
  O  O18  1  0.02617720  0.97877687  0.40053925  1
  P  P19  1  0.04332228  0.55439305  0.22237507  1
