# generated using pymatgen
data_Li2TiMnVNi(P2O5)2
_symmetry_space_group_name_H-M   'P 1'
_cell_length_a   9.39813141
_cell_length_b   4.96900964
_cell_length_c   5.69478718
_cell_angle_alpha   62.87817757
_cell_angle_beta   90.44111939
_cell_angle_gamma   76.11394500
_symmetry_Int_Tables_number   1
_chemical_formula_structural   Li2TiMnVNi(P2O5)2
_chemical_formula_sum   'Li2 Ti1 Mn1 V1 Ni1 P4 O10'
_cell_volume   227.66193922
_cell_formula_units_Z   1
loop_
 _symmetry_equiv_pos_site_id
 _symmetry_equiv_pos_as_xyz
  1  'x, y, z'
loop_
 _atom_site_type_symbol
 _atom_site_label
 _atom_site_symmetry_multiplicity
 _atom_site_fract_x
 _atom_site_fract_y
 _atom_site_fract_z
 _atom_site_occupancy
  Li  Li0  1  0.95658433  0.90752572  0.24428989  1
  Li  Li1  1  0.44028559  0.44223800  0.42666075  1
  V  V2  1  0.57868063  0.43323541  0.72225612  1
  Ti  Ti3  1  0.81222326  0.12826833  0.04256520  1
  O  O4  1  0.01564503  0.42408818  0.01466829  1
  P  P5  1  0.02887906  0.96869290  0.02008771  1
  P  P6  1  0.95123297  0.56540036  0.61683190  1
  O  O7  1  0.86218309  0.73025298  0.96993136  1
  O  O8  1  0.61289233  0.95751894  0.05825444  1
  Ni  Ni9  1  0.03513943  0.09162675  0.17406593  1
  P  P10  1  0.01416621  0.53599572  0.51049858  1
  Mn  Mn11  1  0.97834003  0.51817185  0.01641460  1
  O  O12  1  0.33060706  0.98266274  0.96463007  1
  O  O13  1  0.37070692  0.07077321  0.51864082  1
  P  P14  1  0.51028049  0.97773367  0.57090318  1
  O  O15  1  0.96372795  0.56303883  0.32197598  1
  O  O16  1  0.04577259  0.06967118  0.66811520  1
  O  O17  1  0.37770528  0.98124802  0.04149187  1
  O  O18  1  0.02553325  0.97753280  0.34211382  1
  O  O19  1  0.04209230  0.56333083  0.24870266  1
