# generated using pymatgen
data_NaLi2TiMnNiP5O11
_symmetry_space_group_name_H-M   'P 1'
_cell_length_a   7.41178255
_cell_length_b   9.03671742
_cell_length_c   8.99092253
_cell_angle_alpha   83.65053119
_cell_angle_beta   76.19578240
_cell_angle_gamma   91.67954616
_symmetry_Int_Tables_number   1
_chemical_formula_structural   NaLi2TiMnNiP5O11
_chemical_formula_sum   'Na1 Li2 Ti1 Mn1 Ni1 P5 O11'
_cell_volume   580.24642258
_cell_formula_units_Z   1
loop_
 _symmetry_equiv_pos_site_id
 _symmetry_equiv_pos_as_xyz
  1  'x, y, z'
loop_
 _atom_site_type_symbol
 _atom_site_label
 _atom_site_symmetry_multiplicity
 _atom_site_fract_x
 _atom_site_fract_y
 _atom_site_fract_z
 _atom_site_occupancy
  Li  Li0  1  0.96725065  0.94357514  0.25786701  1
  Na  Na1  1  0.44718337  0.38604575  0.36543587  1
  Li  Li2  1  0.59669203  0.38672015  0.74457347  1
  Mn  Mn3  1  0.85832191  0.10680233  0.03005496  1
  P  P4  1  0.97443962  0.97109818  0.69406122  1
  Ti  Ti5  1  0.67268670  0.99910766  0.96478671  1
  O  O6  1  0.01148744  0.36580962  0.00559876  1
  O  O7  1  0.02127370  0.98357910  0.01165108  1
  O  O8  1  0.96292204  0.58431011  0.67091322  1
  Ni  Ni9  1  0.89169014  0.76271766  0.97318792  1
  O  O10  1  0.64204091  0.97391939  0.03699426  1
  O  O11  1  0.02553174  0.08110470  0.13505222  1
  P  P12  1  0.01047484  0.49456954  0.56206232  1
  P  P13  1  0.98395425  0.48170385  0.00710971  1
  O  O14  1  0.28641188  0.99592787  0.96913558  1
  O  O15  1  0.32522044  0.06306415  0.55861956  1
  O  O16  1  0.56730396  0.99033213  0.57152641  1
  P  P17  1  0.97223592  0.52034920  0.30923575  1
  P  P18  1  0.03392771  0.06287279  0.70626128  1
  O  O19  1  0.37308532  0.99213815  0.02540382  1
  O  O20  1  0.01902799  0.98925197  0.35569894  1
  O  O21  1  0.03124203  0.51513696  0.26065797  1
