# generated using pymatgen
data_Li4MnCoP6W2O5
_symmetry_space_group_name_H-M   'P 1'
_cell_length_a   6.19513208
_cell_length_b   7.65194057
_cell_length_c   5.61553779
_cell_angle_alpha   71.47399644
_cell_angle_beta   85.46346140
_cell_angle_gamma   104.08742822
_symmetry_Int_Tables_number   1
_chemical_formula_structural   Li4MnCoP6W2O5
_chemical_formula_sum   'Li4 Mn1 Co1 P6 W2 O5'
_cell_volume   241.24983796
_cell_formula_units_Z   1
loop_
 _symmetry_equiv_pos_site_id
 _symmetry_equiv_pos_as_xyz
  1  'x, y, z'
loop_
 _atom_site_type_symbol
 _atom_site_label
 _atom_site_symmetry_multiplicity
 _atom_site_fract_x
 _atom_site_fract_y
 _atom_site_fract_z
 _atom_site_occupancy
  Li  Li0  1  0.95524323  0.91498715  0.28717422  1
  Li  Li1  1  0.38847414  0.39425117  0.38803884  1
  Li  Li2  1  0.65484047  0.41752493  0.72050047  1
  Li  Li3  1  0.81898785  0.12768179  0.04507230  1
  P  P4  1  0.03217702  0.96556926  0.02294750  1
  O  O5  1  0.94856298  0.57593191  0.64209938  1
  P  P6  1  0.86418205  0.70983732  0.96843791  1
  P  P7  1  0.60917813  0.95627332  0.05389557  1
  O  O8  1  0.03613416  0.09469575  0.17053755  1
  P  P9  1  0.01626276  0.52320898  0.54310918  1
  W  W10  1  0.97626168  0.46729866  0.01891728  1
  Mn  Mn11  1  0.28212133  0.97893399  0.96287853  1
  Co  Co12  1  0.34178191  0.07119630  0.49819878  1
  P  P13  1  0.53543645  0.97247863  0.60732180  1
  P  P14  1  0.96179497  0.53825188  0.34956583  1
  W  W15  1  0.04720867  0.07177581  0.71263760  1
  O  O16  1  0.36523563  0.97845703  0.04024121  1
  O  O17  1  0.02815357  0.97438383  0.36816344  1
  O  O18  1  0.04442915  0.52735138  0.23593448  1
