# generated using pymatgen
data_Li3MnCoMoP5O7
_symmetry_space_group_name_H-M   'P 1'
_cell_length_a   8.22476806
_cell_length_b   4.81377226
_cell_length_c   5.42995615
_cell_angle_alpha   71.05295067
_cell_angle_beta   71.26995723
_cell_angle_gamma   88.15004046
_symmetry_Int_Tables_number   1
_chemical_formula_structural   Li3MnCoMoP5O7
_chemical_formula_sum   'Li3 Mn1 Co1 Mo1 P5 O7'
_cell_volume   191.94466174
_cell_formula_units_Z   1
loop_
 _symmetry_equiv_pos_site_id
 _symmetry_equiv_pos_as_xyz
  1  'x, y, z'
loop_
 _atom_site_type_symbol
 _atom_site_label
 _atom_site_symmetry_multiplicity
 _atom_site_fract_x
 _atom_site_fract_y
 _atom_site_fract_z
 _atom_site_occupancy
  Li  Li0  1  0.95109153  0.86892694  0.21295536  1
  Mo  Mo1  1  0.45795739  0.40079600  0.48504716  1
  Li  Li2  1  0.58047754  0.48823047  0.71218330  1
  Li  Li3  1  0.78166980  0.14472094  0.04574551  1
  P  P4  1  0.94427365  0.55918348  0.54607183  1
  O  O5  1  0.85609180  0.67450082  0.96714556  1
  O  O6  1  0.59288263  0.94868660  0.07268812  1
  Co  Co7  1  0.04333918  0.09671412  0.21420169  1
  O  O8  1  0.01772728  0.60422218  0.47819048  1
  O  O9  1  0.97480386  0.59296668  0.02260753  1
  P  P10  1  0.37151572  0.97626394  0.96168995  1
  P  P11  1  0.41513819  0.07594755  0.48908484  1
  O  O12  1  0.48033947  0.96731681  0.57502550  1
  P  P13  1  0.95808679  0.61332369  0.29745272  1
  P  P14  1  0.05503645  0.07380439  0.61949295  1
  O  O15  1  0.32324269  0.97477859  0.05257464  1
  Mn  Mn16  1  0.03155294  0.97028917  0.34307584  1
  O  O17  1  0.04749799  0.61399144  0.28571510  1
