# generated using pymatgen
data_Li5CrCoP6O7
_symmetry_space_group_name_H-M   'P 1'
_cell_length_a   4.95417774
_cell_length_b   9.10037812
_cell_length_c   6.16689548
_cell_angle_alpha   70.06433383
_cell_angle_beta   80.71348881
_cell_angle_gamma   80.46392202
_symmetry_Int_Tables_number   1
_chemical_formula_structural   Li5CrCoP6O7
_chemical_formula_sum   'Li5 Cr1 Co1 P6 O7'
_cell_volume   256.10626550
_cell_formula_units_Z   1
loop_
 _symmetry_equiv_pos_site_id
 _symmetry_equiv_pos_as_xyz
  1  'x, y, z'
loop_
 _atom_site_type_symbol
 _atom_site_label
 _atom_site_symmetry_multiplicity
 _atom_site_fract_x
 _atom_site_fract_y
 _atom_site_fract_z
 _atom_site_occupancy
  Li  Li0  1  0.96237916  0.93091637  0.31702313  1
  Li  Li1  1  0.39794260  0.42278668  0.35336742  1
  Li  Li2  1  0.64706492  0.37855983  0.73463809  1
  Li  Li3  1  0.84575552  0.11410483  0.03626559  1
  O  O4  1  0.01330579  0.34031177  0.01085902  1
  Cr  Cr5  1  0.02560773  0.97746605  0.01612271  1
  Li  Li6  1  0.95703381  0.53824162  0.68487978  1
  P  P7  1  0.87949193  0.75097418  0.97135770  1
  O  O8  1  0.62268871  0.96584767  0.04063261  1
  P  P9  1  0.02870601  0.08651179  0.14660029  1
  P  P10  1  0.01284862  0.49734452  0.57656908  1
  Co  Co11  1  0.98077226  0.41851410  0.01196563  1
  O  O12  1  0.28926605  0.98749971  0.96669179  1
  O  O13  1  0.32070577  0.06639501  0.52634490  1
  O  O14  1  0.55387932  0.98338032  0.59200782  1
  P  P15  1  0.96688449  0.51222694  0.35551468  1
  P  P16  1  0.03803374  0.06697650  0.72140670  1
  P  P17  1  0.38106915  0.98660260  0.03242864  1
  O  O18  1  0.02286048  0.98470527  0.36908847  1
  O  O19  1  0.03738331  0.49752119  0.22814040  1
