# generated using pymatgen
data_Li3MnCr2FeNi2(PO2)3
_symmetry_space_group_name_H-M   'P 1'
_cell_length_a   6.90464192
_cell_length_b   5.59047279
_cell_length_c   6.82689999
_cell_angle_alpha   94.19141770
_cell_angle_beta   87.03775293
_cell_angle_gamma   109.01247679
_symmetry_Int_Tables_number   1
_chemical_formula_structural   Li3MnCr2FeNi2(PO2)3
_chemical_formula_sum   'Li3 Mn1 Cr2 Fe1 Ni2 P3 O6'
_cell_volume   248.36927542
_cell_formula_units_Z   1
loop_
 _symmetry_equiv_pos_site_id
 _symmetry_equiv_pos_as_xyz
  1  'x, y, z'
loop_
 _atom_site_type_symbol
 _atom_site_label
 _atom_site_symmetry_multiplicity
 _atom_site_fract_x
 _atom_site_fract_y
 _atom_site_fract_z
 _atom_site_occupancy
  Li  Li0  1  0.95048368  0.86033726  0.26818690  1
  Li  Li1  1  0.41861451  0.41714931  0.52377337  1
  Fe  Fe2  1  0.62814778  0.53822869  0.70673108  1
  Li  Li3  1  0.74698669  0.14299549  0.05441960  1
  Ni  Ni4  1  0.94204289  0.49078113  0.54486340  1
  Cr  Cr5  1  0.85485554  0.59981859  0.96751505  1
  Cr  Cr6  1  0.52392751  0.94891202  0.07548421  1
  P  P7  1  0.04168263  0.09720026  0.25157675  1
  P  P8  1  0.01822209  0.63903773  0.47973368  1
  P  P9  1  0.97416687  0.54774070  0.02452871  1
  O  O10  1  0.36494312  0.97700435  0.96121395  1
  Mn  Mn11  1  0.43977746  0.07589082  0.44967574  1
  Ni  Ni12  1  0.43820783  0.96820468  0.61855555  1
  O  O13  1  0.95776165  0.65411758  0.33902261  1
  O  O14  1  0.05698974  0.07354421  0.62240982  1
  O  O15  1  0.31453627  0.97486949  0.05446495  1
  O  O16  1  0.03274277  0.97167385  0.38447839  1
  O  O17  1  0.04973619  0.64177483  0.25558266  1
