# generated using pymatgen
data_Li4CrBi(P3O4)2
_symmetry_space_group_name_H-M   'P 1'
_cell_length_a   7.40859739
_cell_length_b   6.48093311
_cell_length_c   3.35294136
_cell_angle_alpha   85.14180674
_cell_angle_beta   60.75761933
_cell_angle_gamma   89.67291031
_symmetry_Int_Tables_number   1
_chemical_formula_structural   Li4CrBi(P3O4)2
_chemical_formula_sum   'Li4 Cr1 Bi1 P6 O8'
_cell_volume   139.85130988
_cell_formula_units_Z   1
loop_
 _symmetry_equiv_pos_site_id
 _symmetry_equiv_pos_as_xyz
  1  'x, y, z'
loop_
 _atom_site_type_symbol
 _atom_site_label
 _atom_site_symmetry_multiplicity
 _atom_site_fract_x
 _atom_site_fract_y
 _atom_site_fract_z
 _atom_site_occupancy
  Li  Li0  1  0.95657545  0.89840186  0.27455652  1
  Li  Li1  1  0.40037519  0.43356550  0.44258633  1
  Li  Li2  1  0.60307962  0.47081825  0.72563398  1
  Li  Li3  1  0.79123557  0.12695673  0.04077704  1
  Bi  Bi4  1  0.01517449  0.41030723  0.01515380  1
  P  P5  1  0.03006032  0.96693957  0.01919399  1
  O  O6  1  0.95088190  0.53207672  0.59542954  1
  O  O7  1  0.86666173  0.69346029  0.96960157  1
  P  P8  1  0.55686384  0.95912415  0.05558077  1
  O  O9  1  0.03388751  0.09109409  0.20996070  1
  P  P10  1  0.01429877  0.59722573  0.51793784  1
  O  O11  1  0.97837108  0.48660535  0.01723106  1
  O  O12  1  0.28999951  0.98410952  0.96463406  1
  O  O13  1  0.35095134  0.07002418  0.46753940  1
  P  P14  1  0.49785337  0.97591311  0.58207643  1
  Cr  Cr15  1  0.96425873  0.59936613  0.35242194  1
  O  O16  1  0.04777716  0.06898803  0.69611651  1
  P  P17  1  0.34569922  0.98268628  0.04299019  1
  P  P18  1  0.02595679  0.97769457  0.36736044  1
  O  O19  1  0.04141833  0.58758515  0.23761338  1
