# generated using pymatgen
data_Li3MnNiMo2P5O7
_symmetry_space_group_name_H-M   'P 1'
_cell_length_a   7.41042164
_cell_length_b   4.75781044
_cell_length_c   6.38440095
_cell_angle_alpha   97.60610271
_cell_angle_beta   70.28390668
_cell_angle_gamma   52.87208212
_symmetry_Int_Tables_number   1
_chemical_formula_structural   Li3MnNiMo2P5O7
_chemical_formula_sum   'Li3 Mn1 Ni1 Mo2 P5 O7'
_cell_volume   151.07270637
_cell_formula_units_Z   1
loop_
 _symmetry_equiv_pos_site_id
 _symmetry_equiv_pos_as_xyz
  1  'x, y, z'
loop_
 _atom_site_type_symbol
 _atom_site_label
 _atom_site_symmetry_multiplicity
 _atom_site_fract_x
 _atom_site_fract_y
 _atom_site_fract_z
 _atom_site_occupancy
  Li  Li0  1  0.94898164  0.87122875  0.35818565  1
  Li  Li1  1  0.36674690  0.48112744  0.49997628  1
  Mo  Mo2  1  0.60358018  0.56501555  0.71731651  1
  Mo  Mo3  1  0.72593576  0.13217118  0.05871050  1
  O  O4  1  0.03959930  0.95697898  0.02727221  1
  Mn  Mn5  1  0.94299132  0.42763641  0.58829176  1
  Li  Li6  1  0.85391200  0.60131776  0.96694618  1
  O  O7  1  0.46544638  0.94961441  0.06730071  1
  O  O8  1  0.03695308  0.09931546  0.28301802  1
  P  P9  1  0.01859230  0.67631674  0.53347862  1
  P  P10  1  0.97297370  0.44987750  0.02586076  1
  O  O11  1  0.30339870  0.97536987  0.96074444  1
  Ni  Ni12  1  0.38889697  0.07713062  0.44954008  1
  P  P13  1  0.44535244  0.96736348  0.60065001  1
  P  P14  1  0.95768279  0.65213770  0.41756141  1
  P  P15  1  0.06000861  0.07423685  0.67140269  1
  O  O16  1  0.31188944  0.97240543  0.05359916  1
  O  O17  1  0.03212722  0.97258103  0.45414975  1
  O  O18  1  0.05113976  0.63276440  0.24373136  1
