# generated using pymatgen
data_Li3CoSnMoP5O7
_symmetry_space_group_name_H-M   'P 1'
_cell_length_a   7.32106846
_cell_length_b   5.20988983
_cell_length_c   5.35431985
_cell_angle_alpha   87.19624284
_cell_angle_beta   93.25335974
_cell_angle_gamma   77.69083648
_symmetry_Int_Tables_number   1
_chemical_formula_structural   Li3CoSnMoP5O7
_chemical_formula_sum   'Li3 Co1 Sn1 Mo1 P5 O7'
_cell_volume   198.81778382
_cell_formula_units_Z   1
loop_
 _symmetry_equiv_pos_site_id
 _symmetry_equiv_pos_as_xyz
  1  'x, y, z'
loop_
 _atom_site_type_symbol
 _atom_site_label
 _atom_site_symmetry_multiplicity
 _atom_site_fract_x
 _atom_site_fract_y
 _atom_site_fract_z
 _atom_site_occupancy
  Li  Li0  1  0.94415045  0.88264620  0.27174619  1
  Li  Li1  1  0.41187030  0.41117790  0.43733829  1
  Sn  Sn2  1  0.63370293  0.47049269  0.70826882  1
  Li  Li3  1  0.77645218  0.14663991  0.05932498  1
  P  P4  1  0.93530780  0.53900588  0.59280705  1
  Mo  Mo5  1  0.84529620  0.68059456  0.96362591  1
  O  O6  1  0.55496323  0.94209152  0.07175090  1
  Co  Co7  1  0.04743918  0.10617927  0.21670407  1
  O  O8  1  0.02262502  0.58864319  0.53305656  1
  P  P9  1  0.96844208  0.51857680  0.02929226  1
  O  O10  1  0.31237650  0.96735942  0.95747256  1
  P  P11  1  0.37528104  0.08096436  0.48911849  1
  O  O12  1  0.49425799  0.96021140  0.62436718  1
  P  P13  1  0.95238000  0.57869631  0.36422452  1
  O  O14  1  0.06340820  0.07997501  0.67927074  1
  O  O15  1  0.34169480  0.96598500  0.05955417  1
  O  O16  1  0.03655266  0.96049386  0.38379979  1
  P  P17  1  0.05511095  0.58455759  0.26333836  1
