# generated using pymatgen
data_Li3VBiP3O10
_symmetry_space_group_name_H-M   'P 1'
_cell_length_a   6.02096467
_cell_length_b   6.41650312
_cell_length_c   4.65817979
_cell_angle_alpha   59.67860734
_cell_angle_beta   90.98764787
_cell_angle_gamma   88.56558644
_symmetry_Int_Tables_number   1
_chemical_formula_structural   Li3VBiP3O10
_chemical_formula_sum   'Li3 V1 Bi1 P3 O10'
_cell_volume   155.20268161
_cell_formula_units_Z   1
loop_
 _symmetry_equiv_pos_site_id
 _symmetry_equiv_pos_as_xyz
  1  'x, y, z'
loop_
 _atom_site_type_symbol
 _atom_site_label
 _atom_site_symmetry_multiplicity
 _atom_site_fract_x
 _atom_site_fract_y
 _atom_site_fract_z
 _atom_site_occupancy
  Li  Li0  1  0.95111763  0.89547801  0.24694531  1
  Li  Li1  1  0.42222533  0.41412872  0.41830850  1
  Bi  Bi2  1  0.62019235  0.44666156  0.71792012  1
  Li  Li3  1  0.79941064  0.13721769  0.04687015  1
  V  V4  1  0.94454831  0.59093469  0.58303332  1
  P  P5  1  0.85589612  0.71537149  0.96681428  1
  O  O6  1  0.60614574  0.95104480  0.06321394  1
  O  O7  1  0.04304652  0.09962559  0.18709849  1
  P  P8  1  0.01778306  0.54937792  0.51299584  1
  P  P9  1  0.97366941  0.54585546  0.02222525  1
  O  O10  1  0.29565027  0.97572917  0.96133065  1
  O  O11  1  0.34506091  0.07527516  0.47486275  1
  O  O12  1  0.52521652  0.96811312  0.59200698  1
  O  O13  1  0.95758379  0.56133330  0.33537170  1
  O  O14  1  0.05517962  0.07403678  0.70254588  1
  O  O15  1  0.35437706  0.97365874  0.05128010  1
  O  O16  1  0.03031556  0.96873856  0.33804819  1
  O  O17  1  0.04710156  0.58513421  0.25777668  1
