# generated using pymatgen
data_Li4Mn(PO2)5
_symmetry_space_group_name_H-M   'P 1'
_cell_length_a   7.84279214
_cell_length_b   4.69065661
_cell_length_c   6.98876834
_cell_angle_alpha   94.78947471
_cell_angle_beta   67.92342962
_cell_angle_gamma   105.51171580
_symmetry_Int_Tables_number   1
_chemical_formula_structural   Li4Mn(PO2)5
_chemical_formula_sum   'Li4 Mn1 P5 O10'
_cell_volume   229.53180985
_cell_formula_units_Z   1
loop_
 _symmetry_equiv_pos_site_id
 _symmetry_equiv_pos_as_xyz
  1  'x, y, z'
loop_
 _atom_site_type_symbol
 _atom_site_label
 _atom_site_symmetry_multiplicity
 _atom_site_fract_x
 _atom_site_fract_y
 _atom_site_fract_z
 _atom_site_occupancy
  Li  Li0  1  0.95795172  0.90939486  0.33758152  1
  Li  Li1  1  0.36500230  0.45840055  0.41022751  1
  Li  Li2  1  0.62380242  0.48193371  0.74086732  1
  P  P3  1  0.78159636  0.11730094  0.04053073  1
  P  P4  1  0.01534368  0.35183898  0.01550531  1
  Li  Li5  1  0.03089990  0.97100931  0.01968939  1
  O  O6  1  0.95382345  0.49750000  0.63439113  1
  O  O7  1  0.86593169  0.68483877  0.96997446  1
  O  O8  1  0.52317739  0.96059674  0.04633424  1
  O  O9  1  0.03062459  0.09198155  0.21167488  1
  O  O10  1  0.01459086  0.59696335  0.57419324  1
  Mn  Mn11  1  0.97779179  0.42571759  0.01710506  1
  O  O12  1  0.23928940  0.98308688  0.96501744  1
  O  O13  1  0.32798839  0.07047144  0.46909624  1
  O  O14  1  0.51504761  0.97975308  0.61634904  1
  P  P15  1  0.96364611  0.56539452  0.40812799  1
  O  O16  1  0.04901920  0.06936760  0.73851693  1
  P  P17  1  0.34775198  0.98131138  0.03961203  1
  P  P18  1  0.02566013  0.97947288  0.40770373  1
  O  O19  1  0.04136678  0.56574667  0.23013964  1
