# generated using pymatgen
data_NaLi3V2NiP7O6
_symmetry_space_group_name_H-M   'P 1'
_cell_length_a   10.03027342
_cell_length_b   6.31364563
_cell_length_c   6.79337608
_cell_angle_alpha   112.31359306
_cell_angle_beta   97.78538664
_cell_angle_gamma   92.08365551
_symmetry_Int_Tables_number   1
_chemical_formula_structural   NaLi3V2NiP7O6
_chemical_formula_sum   'Na1 Li3 V2 Ni1 P7 O6'
_cell_volume   392.51260406
_cell_formula_units_Z   1
loop_
 _symmetry_equiv_pos_site_id
 _symmetry_equiv_pos_as_xyz
  1  'x, y, z'
loop_
 _atom_site_type_symbol
 _atom_site_label
 _atom_site_symmetry_multiplicity
 _atom_site_fract_x
 _atom_site_fract_y
 _atom_site_fract_z
 _atom_site_occupancy
  Li  Li0  1  0.95651150  0.88596463  0.30015859  1
  Li  Li1  1  0.46001676  0.40705806  0.48136428  1
  Li  Li2  1  0.59987020  0.49516138  0.71448600  1
  Na  Na3  1  0.77822816  0.13069765  0.05123711  1
  Ni  Ni4  1  0.01648151  0.43775490  0.01510859  1
  V  V5  1  0.03380322  0.96635348  0.02222093  1
  P  P6  1  0.94875842  0.48384756  0.59935743  1
  P  P7  1  0.86706996  0.65757132  0.96861303  1
  V  V8  1  0.54481441  0.95497096  0.06196407  1
  P  P9  1  0.03449861  0.09171956  0.23319443  1
  O  O10  1  0.01654315  0.62185341  0.53033507  1
  P  P11  1  0.97612047  0.50081599  0.02000171  1
  O  O12  1  0.35275391  0.98327678  0.96275568  1
  P  P13  1  0.41502029  0.07295030  0.54210836  1
  O  O14  1  0.46496055  0.97504252  0.56552964  1
  P  P15  1  0.96183109  0.62488431  0.33222854  1
  P  P16  1  0.04884387  0.07082990  0.62447256  1
  O  O17  1  0.32631192  0.97757667  0.04680290  1
  O  O18  1  0.02903032  0.97872341  0.41830403  1
  O  O19  1  0.04470852  0.59372121  0.28904760  1
