# generated using pymatgen
data_Li5MnCoSn(P2O5)2
_symmetry_space_group_name_H-M   'P 1'
_cell_length_a   6.33367728
_cell_length_b   9.42703851
_cell_length_c   8.15254538
_cell_angle_alpha   77.84109856
_cell_angle_beta   81.55367744
_cell_angle_gamma   110.21793219
_symmetry_Int_Tables_number   1
_chemical_formula_structural   Li5MnCoSn(P2O5)2
_chemical_formula_sum   'Li5 Mn1 Co1 Sn1 P4 O10'
_cell_volume   433.53927022
_cell_formula_units_Z   1
loop_
 _symmetry_equiv_pos_site_id
 _symmetry_equiv_pos_as_xyz
  1  'x, y, z'
loop_
 _atom_site_type_symbol
 _atom_site_label
 _atom_site_symmetry_multiplicity
 _atom_site_fract_x
 _atom_site_fract_y
 _atom_site_fract_z
 _atom_site_occupancy
  Li  Li0  1  0.96368754  0.89984757  0.31507114  1
  Li  Li1  1  0.42028394  0.45301956  0.48452565  1
  Li  Li2  1  0.59762901  0.52133381  0.74335051  1
  Li  Li3  1  0.77594894  0.11500315  0.03547665  1
  Li  Li4  1  0.97232556  0.95895416  0.55742043  1
  Sn  Sn5  1  0.56315482  0.99593806  0.96425110  1
  O  O6  1  0.01225135  0.42574075  0.00918036  1
  O  O7  1  0.02642979  0.97675562  0.01307334  1
  P  P8  1  0.95890439  0.45018193  0.60625476  1
  O  O9  1  0.88629436  0.64263344  0.97208446  1
  Mn  Mn10  1  0.52173281  0.96929598  0.04829794  1
  O  O11  1  0.02716579  0.08244979  0.23112476  1
  P  P12  1  0.01175588  0.66104513  0.54196507  1
  O  O13  1  0.98190212  0.47761837  0.01214531  1
  Co  Co14  1  0.31930661  0.99222767  0.96732336  1
  P  P15  1  0.36496753  0.06647955  0.48166838  1
  O  O16  1  0.49745226  0.98549283  0.59580725  1
  O  O17  1  0.96901965  0.63060665  0.36157542  1
  O  O18  1  0.04275821  0.06493042  0.65692258  1
  P  P19  1  0.30143976  0.98778576  0.03768510  1
  O  O20  1  0.02199170  0.98896658  0.42786700  1
  O  O21  1  0.03562761  0.61846173  0.26949310  1
