# generated using pymatgen
data_Li4SbP7O6
_symmetry_space_group_name_H-M   'P 1'
_cell_length_a   4.19903347
_cell_length_b   5.23044416
_cell_length_c   6.56621795
_cell_angle_alpha   77.22380872
_cell_angle_beta   86.94804291
_cell_angle_gamma   62.11605665
_symmetry_Int_Tables_number   1
_chemical_formula_structural   Li4SbP7O6
_chemical_formula_sum   'Li4 Sb1 P7 O6'
_cell_volume   124.10224373
_cell_formula_units_Z   1
loop_
 _symmetry_equiv_pos_site_id
 _symmetry_equiv_pos_as_xyz
  1  'x, y, z'
loop_
 _atom_site_type_symbol
 _atom_site_label
 _atom_site_symmetry_multiplicity
 _atom_site_fract_x
 _atom_site_fract_y
 _atom_site_fract_z
 _atom_site_occupancy
  Li  Li0  1  0.94925344  0.88806474  0.39200896  1
  Li  Li1  1  0.37980059  0.48057210  0.44786161  1
  Li  Li2  1  0.63168812  0.49331346  0.71391386  1
  Li  Li3  1  0.75895709  0.13391624  0.05821231  1
  Sb  Sb4  1  0.94274968  0.42572564  0.62829691  1
  P  P5  1  0.85315019  0.65309590  0.96653742  1
  P  P6  1  0.51659340  0.94756085  0.06147202  1
  P  P7  1  0.03710629  0.10057912  0.24996893  1
  O  O8  1  0.01893230  0.61988574  0.55108440  1
  O  O9  1  0.97254008  0.41807187  0.02583500  1
  O  O10  1  0.28582585  0.97455710  0.96007043  1
  O  O11  1  0.36055976  0.07607812  0.46397239  1
  P  P12  1  0.48114434  0.96662438  0.58557796  1
  O  O13  1  0.95642495  0.60443866  0.41442281  1
  P  P14  1  0.05732005  0.07507075  0.69439971  1
  P  P15  1  0.34201294  0.97118133  0.05336645  1
  P  P16  1  0.03243458  0.97096825  0.43061626  1
  O  O17  1  0.05134000  0.57393360  0.24269296  1
