# generated using pymatgen
data_Li3VFeP8WO6
_symmetry_space_group_name_H-M   'P 1'
_cell_length_a   6.00568640
_cell_length_b   5.66200035
_cell_length_c   5.98738108
_cell_angle_alpha   87.52659458
_cell_angle_beta   85.70037680
_cell_angle_gamma   82.45722291
_symmetry_Int_Tables_number   1
_chemical_formula_structural   Li3VFeP8WO6
_chemical_formula_sum   'Li3 V1 Fe1 P8 W1 O6'
_cell_volume   201.15204744
_cell_formula_units_Z   1
loop_
 _symmetry_equiv_pos_site_id
 _symmetry_equiv_pos_as_xyz
  1  'x, y, z'
loop_
 _atom_site_type_symbol
 _atom_site_label
 _atom_site_symmetry_multiplicity
 _atom_site_fract_x
 _atom_site_fract_y
 _atom_site_fract_z
 _atom_site_occupancy
  Li  Li0  1  0.95902306  0.93380719  0.30908650  1
  Li  Li1  1  0.38503152  0.45865083  0.34191564  1
  Li  Li2  1  0.63472992  0.40099561  0.74132985  1
  Fe  Fe3  1  0.82646030  0.11620276  0.03514522  1
  V  V4  1  0.01539890  0.33468649  0.01454290  1
  P  P5  1  0.02826428  0.97187120  0.01836645  1
  O  O6  1  0.95444638  0.55782843  0.67151368  1
  P  P7  1  0.87108171  0.76517910  0.97016704  1
  P  P8  1  0.60778183  0.96446061  0.04157389  1
  O  O9  1  0.03125611  0.09040634  0.15452480  1
  P  P10  1  0.01384897  0.51964641  0.59302855  1
  P  P11  1  0.97897851  0.42825273  0.01391522  1
  O  O12  1  0.24371341  0.98469448  0.96551847  1
  O  O13  1  0.28862390  0.06787407  0.49302694  1
  P  P14  1  0.57655072  0.98029113  0.59115928  1
  O  O15  1  0.96501350  0.50357509  0.38091701  1
  P  P16  1  0.04528643  0.06843145  0.76184428  1
  W  W17  1  0.38300273  0.98304170  0.03492296  1
  O  O18  1  0.02342123  0.98033172  0.37221593  1
  P  P19  1  0.04063668  0.50116378  0.23580912  1
