# generated using pymatgen
data_Li2BeV2Ni(P3O)3
_symmetry_space_group_name_H-M   'P 1'
_cell_length_a   6.34602837
_cell_length_b   8.48133307
_cell_length_c   4.71825752
_cell_angle_alpha   58.28408675
_cell_angle_beta   90.73852984
_cell_angle_gamma   112.58463376
_symmetry_Int_Tables_number   1
_chemical_formula_structural   Li2BeV2Ni(P3O)3
_chemical_formula_sum   'Li2 Be1 V2 Ni1 P9 O3'
_cell_volume   193.59850512
_cell_formula_units_Z   1
loop_
 _symmetry_equiv_pos_site_id
 _symmetry_equiv_pos_as_xyz
  1  'x, y, z'
loop_
 _atom_site_type_symbol
 _atom_site_label
 _atom_site_symmetry_multiplicity
 _atom_site_fract_x
 _atom_site_fract_y
 _atom_site_fract_z
 _atom_site_occupancy
  Li  Li0  1  0.93644929  0.85413522  0.29034743  1
  Li  Li1  1  0.42992043  0.45156011  0.48559153  1
  P  P2  1  0.58746946  0.51872611  0.70179129  1
  V  V3  1  0.74260879  0.15901278  0.06756679  1
  Be  Be4  1  0.92916769  0.50518602  0.56521696  1
  P  P5  1  0.83619112  0.63170791  0.96128732  1
  P  P6  1  0.54681802  0.93477243  0.09000181  1
  O  O7  1  0.05267789  0.11314641  0.26015404  1
  P  P8  1  0.02591606  0.61754149  0.50114024  1
  V  V9  1  0.96493495  0.53440595  0.03641528  1
  P  P10  1  0.33787528  0.95949388  0.95380419  1
  P  P11  1  0.43144086  0.08779006  0.48302299  1
  P  P12  1  0.46070334  0.95161110  0.57010394  1
  O  O13  1  0.94604212  0.60596752  0.36545876  1
  Ni  Ni14  1  0.07118577  0.08479379  0.63104236  1
  P  P15  1  0.33780321  0.95874900  0.06678964  1
  P  P16  1  0.04303211  0.95697039  0.39464110  1
  O  O17  1  0.06309919  0.60814303  0.28936869  1
