# generated using pymatgen
data_Li3CoNiP7O8
_symmetry_space_group_name_H-M   'P 1'
_cell_length_a   9.30042073
_cell_length_b   5.76199590
_cell_length_c   7.69790733
_cell_angle_alpha   116.32365681
_cell_angle_beta   86.74368360
_cell_angle_gamma   71.63406999
_symmetry_Int_Tables_number   1
_chemical_formula_structural   Li3CoNiP7O8
_chemical_formula_sum   'Li3 Co1 Ni1 P7 O8'
_cell_volume   341.41900834
_cell_formula_units_Z   1
loop_
 _symmetry_equiv_pos_site_id
 _symmetry_equiv_pos_as_xyz
  1  'x, y, z'
loop_
 _atom_site_type_symbol
 _atom_site_label
 _atom_site_symmetry_multiplicity
 _atom_site_fract_x
 _atom_site_fract_y
 _atom_site_fract_z
 _atom_site_occupancy
  Li  Li0  1  0.95918167  0.90672177  0.26015827  1
  Li  Li1  1  0.43383202  0.42490262  0.42314100  1
  Co  Co2  1  0.56603044  0.45792013  0.73219711  1
  Li  Li3  1  0.80740440  0.12392499  0.04038606  1
  P  P4  1  0.01485641  0.42346042  0.01293291  1
  O  O5  1  0.02806710  0.96983665  0.01809292  1
  P  P6  1  0.95529032  0.54716206  0.62116951  1
  P  P7  1  0.87258530  0.70487624  0.97075820  1
  P  P8  1  0.60539097  0.96325767  0.05501218  1
  P  P9  1  0.03219608  0.08977093  0.18249801  1
  O  O10  1  0.01386426  0.55766946  0.52799475  1
  O  O11  1  0.97927004  0.51146740  0.01558445  1
  O  O12  1  0.31726938  0.98530251  0.96533316  1
  O  O13  1  0.37393332  0.06933615  0.52373379  1
  Ni  Ni14  1  0.52272153  0.97897071  0.56946629  1
  O  O15  1  0.96500397  0.56796241  0.32529870  1
  O  O16  1  0.04311970  0.06784133  0.66592890  1
  P  P17  1  0.35017583  0.98176330  0.03693517  1
  O  O18  1  0.02515797  0.98076433  0.37625301  1
  P  P19  1  0.03975667  0.56690407  0.26521593  1
