# generated using pymatgen
data_Li4Cr3P2NO8
_symmetry_space_group_name_H-M   'P 1'
_cell_length_a   5.35101402
_cell_length_b   4.60420632
_cell_length_c   7.23713240
_cell_angle_alpha   88.92266174
_cell_angle_beta   92.19405856
_cell_angle_gamma   110.23383899
_symmetry_Int_Tables_number   1
_chemical_formula_structural   Li4Cr3P2NO8
_chemical_formula_sum   'Li4 Cr3 P2 N1 O8'
_cell_volume   167.17365274
_cell_formula_units_Z   1
loop_
 _symmetry_equiv_pos_site_id
 _symmetry_equiv_pos_as_xyz
  1  'x, y, z'
loop_
 _atom_site_type_symbol
 _atom_site_label
 _atom_site_symmetry_multiplicity
 _atom_site_fract_x
 _atom_site_fract_y
 _atom_site_fract_z
 _atom_site_occupancy
  Li  Li0  1  0.95398575  0.91412508  0.31418824  1
  Li  Li1  1  0.39875641  0.45785707  0.39214164  1
  Cr  Cr2  1  0.62334275  0.43136382  0.72840130  1
  Li  Li3  1  0.80340999  0.12614375  0.04517860  1
  P  P4  1  0.94868660  0.52270025  0.65609747  1
  Cr  Cr5  1  0.86435652  0.73211163  0.96803635  1
  Li  Li6  1  0.57821196  0.95614564  0.05306289  1
  N  N7  1  0.03468582  0.09613388  0.18026489  1
  O  O8  1  0.01674008  0.56212604  0.56450093  1
  Cr  Cr9  1  0.97526753  0.44401199  0.01896556  1
  O  O10  1  0.28963187  0.98007375  0.96268296  1
  O  O11  1  0.33552799  0.07292164  0.51373851  1
  O  O12  1  0.54036921  0.97258508  0.59350014  1
  O  O13  1  0.96131200  0.54000551  0.37030426  1
  O  O14  1  0.04979923  0.07277510  0.71030819  1
  O  O15  1  0.36436629  0.97687918  0.04150286  1
  P  P16  1  0.02883987  0.97457123  0.39470160  1
  O  O17  1  0.04492614  0.53150088  0.24911803  1
