# generated using pymatgen
data_Li4VCrP5O9
_symmetry_space_group_name_H-M   'P 1'
_cell_length_a   8.07027822
_cell_length_b   8.19883003
_cell_length_c   8.11487244
_cell_angle_alpha   106.52633113
_cell_angle_beta   76.14746530
_cell_angle_gamma   77.57388881
_symmetry_Int_Tables_number   1
_chemical_formula_structural   Li4VCrP5O9
_chemical_formula_sum   'Li4 V1 Cr1 P5 O9'
_cell_volume   476.07391245
_cell_formula_units_Z   1
loop_
 _symmetry_equiv_pos_site_id
 _symmetry_equiv_pos_as_xyz
  1  'x, y, z'
loop_
 _atom_site_type_symbol
 _atom_site_label
 _atom_site_symmetry_multiplicity
 _atom_site_fract_x
 _atom_site_fract_y
 _atom_site_fract_z
 _atom_site_occupancy
  Li  Li0  1  0.96234185  0.91839135  0.25620380  1
  Li  Li1  1  0.42554384  0.42968014  0.42243326  1
  Li  Li2  1  0.58596808  0.42805290  0.73810458  1
  Li  Li3  1  0.82820213  0.11973017  0.03667618  1
  P  P4  1  0.01334571  0.42570391  0.00933443  1
  P  P5  1  0.02519268  0.97664201  0.01555696  1
  Cr  Cr6  1  0.95664412  0.54904312  0.63656634  1
  V  V7  1  0.88019371  0.72789210  0.97194332  1
  P  P8  1  0.62219107  0.96494836  0.04786578  1
  O  O9  1  0.02885597  0.08611454  0.16055785  1
  O  O10  1  0.01237087  0.52998275  0.53125149  1
  P  P11  1  0.98145515  0.49937919  0.01139290  1
  O  O12  1  0.34451410  0.99017012  0.96712202  1
  O  O13  1  0.36523241  0.06641804  0.52483422  1
  O  O14  1  0.53936338  0.98342985  0.56626385  1
  O  O15  1  0.96899271  0.56968391  0.30493346  1
  P  P16  1  0.03842122  0.06630415  0.65949243  1
  O  O17  1  0.34111932  0.98677170  0.03185212  1
  O  O18  1  0.02195915  0.98602402  0.37365583  1
  O  O19  1  0.03699086  0.54580057  0.27995312  1
