# generated using pymatgen
data_Li4FeCo2SnP7O8
_symmetry_space_group_name_H-M   'P 1'
_cell_length_a   5.39024827
_cell_length_b   8.18007927
_cell_length_c   9.53884343
_cell_angle_alpha   83.09701546
_cell_angle_beta   66.38934278
_cell_angle_gamma   58.02976425
_symmetry_Int_Tables_number   1
_chemical_formula_structural   Li4FeCo2SnP7O8
_chemical_formula_sum   'Li4 Fe1 Co2 Sn1 P7 O8'
_cell_volume   324.63869369
_cell_formula_units_Z   1
loop_
 _symmetry_equiv_pos_site_id
 _symmetry_equiv_pos_as_xyz
  1  'x, y, z'
loop_
 _atom_site_type_symbol
 _atom_site_label
 _atom_site_symmetry_multiplicity
 _atom_site_fract_x
 _atom_site_fract_y
 _atom_site_fract_z
 _atom_site_occupancy
  Li  Li0  1  0.96875924  0.95469666  0.40200958  1
  Li  Li1  1  0.34948108  0.43245906  0.31559554  1
  Li  Li2  1  0.67815924  0.38321158  0.75409353  1
  Li  Li3  1  0.85040265  0.09636545  0.02915743  1
  Co  Co4  1  0.97436327  0.98066771  0.62256616  1
  Fe  Fe5  1  0.68074822  0.99907047  0.96507955  1
  O  O6  1  0.01741408  0.71967983  0.95219082  1
  P  P7  1  0.01068979  0.26686758  0.00583662  1
  O  O8  1  0.02188941  0.98662549  0.01043870  1
  P  P9  1  0.96442473  0.51208156  0.72828364  1
  Sn  Sn10  1  0.89086246  0.76866710  0.97321415  1
  P  P11  1  0.57775265  0.97736484  0.02573410  1
  P  P12  1  0.02094629  0.08008179  0.14742579  1
  Co  Co13  1  0.01018666  0.52703565  0.64787710  1
  O  O14  1  0.98373657  0.34331012  0.00689629  1
  O  O15  1  0.21240443  0.99686646  0.96917260  1
  P  P16  1  0.26963818  0.06099217  0.52316040  1
  O  O17  1  0.57764095  0.99212646  0.61469984  1
  P  P18  1  0.97307837  0.51142424  0.40665480  1
  P  P19  1  0.03420411  0.06206394  0.77164227  1
  O  O20  1  0.37136701  0.99325639  0.02331980  1
  O  O21  1  0.01761465  0.99399257  0.42955834  1
  O  O22  1  0.03155143  0.46594965  0.21982807  1
