# generated using pymatgen
data_Li4SnBi(PO2)5
_symmetry_space_group_name_H-M   'P 1'
_cell_length_a   7.70239853
_cell_length_b   7.37784046
_cell_length_c   5.56130499
_cell_angle_alpha   65.60997644
_cell_angle_beta   66.44598814
_cell_angle_gamma   80.26771135
_symmetry_Int_Tables_number   1
_chemical_formula_structural   Li4SnBi(PO2)5
_chemical_formula_sum   'Li4 Sn1 Bi1 P5 O10'
_cell_volume   263.84464958
_cell_formula_units_Z   1
loop_
 _symmetry_equiv_pos_site_id
 _symmetry_equiv_pos_as_xyz
  1  'x, y, z'
loop_
 _atom_site_type_symbol
 _atom_site_label
 _atom_site_symmetry_multiplicity
 _atom_site_fract_x
 _atom_site_fract_y
 _atom_site_fract_z
 _atom_site_occupancy
  Li  Li0  1  0.96920264  0.96384716  0.28092393  1
  Li  Li1  1  0.50331128  0.43334040  0.30542770  1
  Li  Li2  1  0.50123119  0.31798875  0.75881159  1
  Li  Li3  1  0.87873548  0.10239436  0.02641934  1
  Sn  Sn4  1  0.97468919  0.97480285  0.72162759  1
  P  P5  1  0.01078137  0.35617325  0.00392459  1
  P  P6  1  0.02019566  0.98643106  0.01111150  1
  O  O7  1  0.96576375  0.58454698  0.72346979  1
  O  O8  1  0.89641798  0.85721296  0.97321290  1
  O  O9  1  0.68113536  0.97338933  0.02919617  1
  O  O10  1  0.02149644  0.08034939  0.11061691  1
  P  P11  1  0.00996424  0.44573313  0.61539423  1
  Bi  Bi12  1  0.98411351  0.46003920  0.00540802  1
  O  O13  1  0.28883943  0.99840349  0.96970624  1
  O  O14  1  0.26226085  0.06263438  0.65542734  1
  O  O15  1  0.62620956  0.99288869  0.45855021  1
  P  P16  1  0.97336692  0.46178901  0.30079809  1
  O  O17  1  0.03059818  0.06237715  0.71621990  1
  O  O18  1  0.39474118  0.99276936  0.02105237  1
  P  P19  1  0.01739855  0.99286187  0.39607641  1
  O  O20  1  0.03124516  0.44174737  0.33582234  1
