# generated using pymatgen
data_Li3V2Ni(PO)8
_symmetry_space_group_name_H-M   'P 1'
_cell_length_a   5.72288415
_cell_length_b   7.84074490
_cell_length_c   4.53655716
_cell_angle_alpha   62.79418982
_cell_angle_beta   92.74817272
_cell_angle_gamma   87.93989268
_symmetry_Int_Tables_number   1
_chemical_formula_structural   Li3V2Ni(PO)8
_chemical_formula_sum   'Li3 V2 Ni1 P8 O8'
_cell_volume   180.45045326
_cell_formula_units_Z   1
loop_
 _symmetry_equiv_pos_site_id
 _symmetry_equiv_pos_as_xyz
  1  'x, y, z'
loop_
 _atom_site_type_symbol
 _atom_site_label
 _atom_site_symmetry_multiplicity
 _atom_site_fract_x
 _atom_site_fract_y
 _atom_site_fract_z
 _atom_site_occupancy
  Li  Li0  1  0.96533144  0.93580830  0.34715760  1
  Li  Li1  1  0.33961472  0.42950931  0.37451327  1
  V  V2  1  0.70802784  0.43472305  0.74629819  1
  Li  Li3  1  0.82404381  0.10447204  0.03312231  1
  Ni  Ni4  1  0.97306657  0.97092342  0.58472264  1
  P  P5  1  0.62392437  0.99789196  0.96385789  1
  V  V6  1  0.01173892  0.31796101  0.00816034  1
  P  P7  1  0.02391642  0.98210639  0.01262182  1
  O  O8  1  0.96131289  0.49528083  0.67972112  1
  O  O9  1  0.88461924  0.72450817  0.97255713  1
  P  P10  1  0.53268749  0.97247678  0.03147718  1
  O  O11  1  0.02465531  0.08289035  0.17435429  1
  P  P12  1  0.01101183  0.58494943  0.59877348  1
  P  P13  1  0.98229939  0.38489899  0.00928902  1
  O  O14  1  0.24157558  0.99412525  0.96812630  1
  O  O15  1  0.30427724  0.06310388  0.47877356  1
  P  P16  1  0.52824962  0.98730123  0.65227020  1
  O  O17  1  0.97166699  0.55417925  0.41054359  1
  P  P18  1  0.03871630  0.06335050  0.75368464  1
  P  P19  1  0.33628458  0.98980683  0.02978665  1
  O  O20  1  0.01963247  0.99100572  0.40789890  1
  O  O21  1  0.03361952  0.52950954  0.19767855  1
