# generated using pymatgen
data_Li3Fe(PO2)5
_symmetry_space_group_name_H-M   'P 1'
_cell_length_a   7.83104400
_cell_length_b   3.53562616
_cell_length_c   5.32974227
_cell_angle_alpha   87.53869107
_cell_angle_beta   85.81512884
_cell_angle_gamma   79.43807733
_symmetry_Int_Tables_number   1
_chemical_formula_structural   Li3Fe(PO2)5
_chemical_formula_sum   'Li3 Fe1 P5 O10'
_cell_volume   144.61522405
_cell_formula_units_Z   1
loop_
 _symmetry_equiv_pos_site_id
 _symmetry_equiv_pos_as_xyz
  1  'x, y, z'
loop_
 _atom_site_type_symbol
 _atom_site_label
 _atom_site_symmetry_multiplicity
 _atom_site_fract_x
 _atom_site_fract_y
 _atom_site_fract_z
 _atom_site_occupancy
  Li  Li0  1  0.95591241  0.90722114  0.33164424  1
  Fe  Fe1  1  0.38250566  0.44044980  0.41784960  1
  Li  Li2  1  0.61801904  0.45767736  0.72625405  1
  Li  Li3  1  0.79694957  0.12677705  0.05006545  1
  P  P4  1  0.03285936  0.96613562  0.02322343  1
  P  P5  1  0.94739783  0.50208217  0.62975848  1
  P  P6  1  0.86029577  0.69240278  0.96863914  1
  O  O7  1  0.55219322  0.95661044  0.05345838  1
  O  O8  1  0.03349490  0.09432599  0.21116860  1
  O  O9  1  0.01613235  0.57487547  0.54692864  1
  O  O10  1  0.97559249  0.45087752  0.01981183  1
  O  O11  1  0.27400669  0.97902691  0.96319103  1
  O  O12  1  0.35725704  0.07223857  0.48381019  1
  O  O13  1  0.50750250  0.97469348  0.59806108  1
  O  O14  1  0.96148145  0.58006096  0.38262817  1
  P  P15  1  0.04956790  0.07161915  0.70982164  1
  O  O16  1  0.35041928  0.97741383  0.04430540  1
  P  P17  1  0.02845778  0.97494942  0.39592433  1
  O  O18  1  0.04409693  0.55844814  0.24026166  1
