# generated using pymatgen
data_Li5MnFeCo(PO2)4
_symmetry_space_group_name_H-M   'P 1'
_cell_length_a   7.23999200
_cell_length_b   10.26056390
_cell_length_c   6.75812537
_cell_angle_alpha   69.98665913
_cell_angle_beta   81.31406330
_cell_angle_gamma   85.41600880
_symmetry_Int_Tables_number   1
_chemical_formula_structural   Li5MnFeCo(PO2)4
_chemical_formula_sum   'Li5 Mn1 Fe1 Co1 P4 O8'
_cell_volume   466.09460863
_cell_formula_units_Z   1
loop_
 _symmetry_equiv_pos_site_id
 _symmetry_equiv_pos_as_xyz
  1  'x, y, z'
loop_
 _atom_site_type_symbol
 _atom_site_label
 _atom_site_symmetry_multiplicity
 _atom_site_fract_x
 _atom_site_fract_y
 _atom_site_fract_z
 _atom_site_occupancy
  Li  Li0  1  0.96168327  0.92084289  0.25802693  1
  Li  Li1  1  0.42951164  0.41496730  0.38927105  1
  Li  Li2  1  0.62307793  0.41568473  0.73498011  1
  Li  Li3  1  0.82981896  0.11875473  0.03432570  1
  P  P4  1  0.01375664  0.39708257  0.01090292  1
  O  O5  1  0.02675763  0.97420537  0.01713035  1
  Li  Li6  1  0.95710313  0.56548798  0.62591964  1
  Mn  Mn7  1  0.88081402  0.73476875  0.97104001  1
  Co  Co8  1  0.62276155  0.96613389  0.04810520  1
  P  P9  1  0.03144961  0.08739845  0.16199929  1
  P  P10  1  0.01292458  0.53002000  0.53469568  1
  P  P11  1  0.98032790  0.50521195  0.01265988  1
  O  O12  1  0.29694024  0.98765075  0.96631193  1
  O  O13  1  0.32148275  0.06763427  0.50510013  1
  O  O14  1  0.55210799  0.98146594  0.57418555  1
  O  O15  1  0.96629262  0.54018337  0.32624370  1
  O  O16  1  0.04216997  0.06680791  0.71735001  1
  O  O17  1  0.35862750  0.98499310  0.03680732  1
  Fe  Fe18  1  0.02312737  0.98279554  0.35184982  1
  O  O19  1  0.03760964  0.55299848  0.25785220  1
