# generated using pymatgen
data_Li4MnV(P2O3)3
_symmetry_space_group_name_H-M   'P 1'
_cell_length_a   7.74317457
_cell_length_b   7.63163247
_cell_length_c   7.51357799
_cell_angle_alpha   85.31381820
_cell_angle_beta   84.82775086
_cell_angle_gamma   68.55701017
_symmetry_Int_Tables_number   1
_chemical_formula_structural   Li4MnV(P2O3)3
_chemical_formula_sum   'Li4 Mn1 V1 P6 O9'
_cell_volume   411.01532648
_cell_formula_units_Z   1
loop_
 _symmetry_equiv_pos_site_id
 _symmetry_equiv_pos_as_xyz
  1  'x, y, z'
loop_
 _atom_site_type_symbol
 _atom_site_label
 _atom_site_symmetry_multiplicity
 _atom_site_fract_x
 _atom_site_fract_y
 _atom_site_fract_z
 _atom_site_occupancy
  Li  Li0  1  0.96272749  0.89786977  0.21712302  1
  Li  Li1  1  0.43635461  0.39369386  0.46671349  1
  Li  Li2  1  0.57256442  0.47228602  0.72683638  1
  Li  Li3  1  0.80730420  0.12537202  0.03806780  1
  V  V4  1  0.96967924  0.95074916  0.64043254  1
  O  O5  1  0.01325950  0.47881252  0.00963356  1
  P  P6  1  0.02641647  0.97203296  0.01500261  1
  Mn  Mn7  1  0.95659083  0.56343490  0.58144492  1
  O  O8  1  0.87744206  0.69183499  0.97133625  1
  P  P9  1  0.60257387  0.96493667  0.05443554  1
  P  P10  1  0.03149544  0.08595241  0.18510851  1
  O  O11  1  0.01248068  0.59046715  0.50236470  1
  O  O12  1  0.98088574  0.57438660  0.01275798  1
  P  P13  1  0.36739466  0.98988110  0.96660882  1
  P  P14  1  0.37885311  0.06695985  0.50355440  1
  O  O15  1  0.50365722  0.98071396  0.57534230  1
  O  O16  1  0.96779341  0.61817867  0.29098660  1
  O  O17  1  0.04234279  0.06576012  0.62938422  1
  O  O18  1  0.31846529  0.98539323  0.03715918  1
  P  P19  1  0.02317978  0.98396349  0.36468771  1
  O  O20  1  0.03726473  0.60387456  0.27386105  1
