# generated using pymatgen
data_Li3VFeP4O9
_symmetry_space_group_name_H-M   'P 1'
_cell_length_a   4.73699698
_cell_length_b   8.40453746
_cell_length_c   6.76628714
_cell_angle_alpha   77.57964850
_cell_angle_beta   110.27479234
_cell_angle_gamma   87.90861291
_symmetry_Int_Tables_number   1
_chemical_formula_structural   Li3VFeP4O9
_chemical_formula_sum   'Li3 V1 Fe1 P4 O9'
_cell_volume   244.95775358
_cell_formula_units_Z   1
loop_
 _symmetry_equiv_pos_site_id
 _symmetry_equiv_pos_as_xyz
  1  'x, y, z'
loop_
 _atom_site_type_symbol
 _atom_site_label
 _atom_site_symmetry_multiplicity
 _atom_site_fract_x
 _atom_site_fract_y
 _atom_site_fract_z
 _atom_site_occupancy
  Li  Li0  1  0.94646132  0.92572647  0.39727083  1
  Li  Li1  1  0.30736113  0.46947688  0.32582870  1
  V  V2  1  0.70384806  0.41288772  0.73017555  1
  Li  Li3  1  0.80461973  0.12268727  0.04981847  1
  P  P4  1  0.94358379  0.52364725  0.68486249  1
  P  P5  1  0.85276628  0.73139668  0.96489203  1
  O  O6  1  0.54622144  0.95139229  0.04913063  1
  O  O7  1  0.03832123  0.10374022  0.18109079  1
  O  O8  1  0.02059022  0.53956604  0.63302654  1
  O  O9  1  0.97036707  0.35854512  0.02539743  1
  O  O10  1  0.20010634  0.97099322  0.95960462  1
  O  O11  1  0.27036485  0.07553427  0.44895121  1
  P  P12  1  0.56479043  0.96562237  0.65244782  1
  P  P13  1  0.95559019  0.49014387  0.47114122  1
  O  O14  1  0.05928098  0.07833801  0.80093205  1
  O  O15  1  0.37794790  0.97054827  0.04646939  1
  Fe  Fe16  1  0.03179856  0.96674085  0.41035452  1
  O  O17  1  0.05163208  0.49347669  0.20929693  1
