# generated using pymatgen
data_Li4MnVCoP3O8
_symmetry_space_group_name_H-M   'P 1'
_cell_length_a   5.39367082
_cell_length_b   5.12230538
_cell_length_c   5.11049133
_cell_angle_alpha   79.23571716
_cell_angle_beta   54.71650883
_cell_angle_gamma   66.42609188
_symmetry_Int_Tables_number   1
_chemical_formula_structural   Li4MnVCoP3O8
_chemical_formula_sum   'Li4 Mn1 V1 Co1 P3 O8'
_cell_volume   105.45269982
_cell_formula_units_Z   1
loop_
 _symmetry_equiv_pos_site_id
 _symmetry_equiv_pos_as_xyz
  1  'x, y, z'
loop_
 _atom_site_type_symbol
 _atom_site_label
 _atom_site_symmetry_multiplicity
 _atom_site_fract_x
 _atom_site_fract_y
 _atom_site_fract_z
 _atom_site_occupancy
  Li  Li0  1  0.94691008  0.88066727  0.31185779  1
  Li  Li1  1  0.37612289  0.44590551  0.45148918  1
  Li  Li2  1  0.65239346  0.49449831  0.71290064  1
  Li  Li3  1  0.75892520  0.14167705  0.05665149  1
  O  O4  1  0.93918270  0.50501662  0.60292453  1
  V  V5  1  0.84444833  0.65954065  0.96540880  1
  O  O6  1  0.54050785  0.94612783  0.06950589  1
  O  O7  1  0.04237833  0.10193202  0.22950965  1
  Mn  Mn8  1  0.02010443  0.61077523  0.53472078  1
  O  O9  1  0.97121090  0.47331870  0.02710759  1
  O  O10  1  0.31924015  0.97146130  0.95858371  1
  P  P11  1  0.37524125  0.07741840  0.45790362  1
  O  O12  1  0.48337719  0.96176183  0.63391656  1
  P  P13  1  0.95512444  0.59869295  0.38374299  1
  O  O14  1  0.06092478  0.07666229  0.67618948  1
  P  P15  1  0.33231935  0.97002262  0.05396401  1
  O  O16  1  0.03421875  0.96793556  0.39599800  1
  Co  Co17  1  0.05324367  0.57803541  0.23381345  1
