# generated using pymatgen
data_Li3Mn2FeBiP4O9
_symmetry_space_group_name_H-M   'P 1'
_cell_length_a   7.67119652
_cell_length_b   4.87330931
_cell_length_c   5.07261621
_cell_angle_alpha   89.06469384
_cell_angle_beta   91.37793956
_cell_angle_gamma   89.74346035
_symmetry_Int_Tables_number   1
_chemical_formula_structural   Li3Mn2FeBiP4O9
_chemical_formula_sum   'Li3 Mn2 Fe1 Bi1 P4 O9'
_cell_volume   189.55291294
_cell_formula_units_Z   1
loop_
 _symmetry_equiv_pos_site_id
 _symmetry_equiv_pos_as_xyz
  1  'x, y, z'
loop_
 _atom_site_type_symbol
 _atom_site_label
 _atom_site_symmetry_multiplicity
 _atom_site_fract_x
 _atom_site_fract_y
 _atom_site_fract_z
 _atom_site_occupancy
  Li  Li0  1  0.95983011  0.94046915  0.25699404  1
  Li  Li1  1  0.48407489  0.40817463  0.31433052  1
  Fe  Fe2  1  0.57771218  0.33678198  0.73544586  1
  Li  Li3  1  0.86175197  0.11853131  0.03564698  1
  O  O4  1  0.01480289  0.33677825  0.01135360  1
  Bi  Bi5  1  0.02706699  0.97126192  0.01875358  1
  Mn  Mn6  1  0.95527762  0.63562298  0.68145502  1
  O  O7  1  0.87802976  0.82005644  0.96962029  1
  Mn  Mn8  1  0.68855417  0.96264571  0.04464183  1
  P  P9  1  0.03275117  0.08979155  0.12413441  1
  O  O10  1  0.01428308  0.44309402  0.57244462  1
  O  O11  1  0.97840720  0.49769723  0.01329255  1
  O  O12  1  0.26576048  0.98498094  0.96552551  1
  O  O13  1  0.29505843  0.06872504  0.58386439  1
  O  O14  1  0.59787554  0.97948891  0.52122164  1
  P  P15  1  0.96467030  0.46059030  0.30919930  1
  O  O16  1  0.04090428  0.06907502  0.74565935  1
  P  P17  1  0.41698030  0.98290282  0.03389218  1
  P  P18  1  0.02366681  0.97746891  0.32991219  1
  O  O19  1  0.03866409  0.47634339  0.28250664  1
