# generated using pymatgen
data_Li3MnVCr2P3O10
_symmetry_space_group_name_H-M   'P 1'
_cell_length_a   8.95949081
_cell_length_b   8.15603812
_cell_length_c   5.85478688
_cell_angle_alpha   70.20750775
_cell_angle_beta   62.96878405
_cell_angle_gamma   97.69944488
_symmetry_Int_Tables_number   1
_chemical_formula_structural   Li3MnVCr2P3O10
_chemical_formula_sum   'Li3 Mn1 V1 Cr2 P3 O10'
_cell_volume   336.76856098
_cell_formula_units_Z   1
loop_
 _symmetry_equiv_pos_site_id
 _symmetry_equiv_pos_as_xyz
  1  'x, y, z'
loop_
 _atom_site_type_symbol
 _atom_site_label
 _atom_site_symmetry_multiplicity
 _atom_site_fract_x
 _atom_site_fract_y
 _atom_site_fract_z
 _atom_site_occupancy
  Li  Li0  1  0.96189857  0.93448466  0.25702581  1
  Li  Li1  1  0.44169998  0.39695689  0.34333864  1
  Li  Li2  1  0.62801778  0.36823261  0.73451579  1
  V  V3  1  0.85319889  0.11882875  0.03607201  1
  O  O4  1  0.01394120  0.36018762  0.01029161  1
  Cr  Cr5  1  0.02620100  0.97640747  0.01628974  1
  O  O6  1  0.95752108  0.60631049  0.66154641  1
  O  O7  1  0.87580383  0.77739936  0.97114611  1
  O  O8  1  0.64738715  0.96465743  0.04311999  1
  P  P9  1  0.03048941  0.08865304  0.13781136  1
  O  O10  1  0.01268989  0.46578586  0.54759246  1
  Mn  Mn11  1  0.98044819  0.49383539  0.01175171  1
  O  O12  1  0.27130285  0.98774397  0.96664840  1
  Cr  Cr13  1  0.33180389  0.06609711  0.54792553  1
  P  P14  1  0.57786340  0.98224342  0.55178374  1
  P  P15  1  0.96699727  0.49419138  0.31185877  1
  O  O16  1  0.03932497  0.06687276  0.73088086  1
  O  O17  1  0.39404491  0.98568952  0.03279639  1
  O  O18  1  0.02197438  0.98283851  0.33252344  1
  O  O19  1  0.03668255  0.50099558  0.25878334  1
