# generated using pymatgen
data_Li3MnNiP6O7
_symmetry_space_group_name_H-M   'P 1'
_cell_length_a   5.53748682
_cell_length_b   4.41779233
_cell_length_c   5.66100922
_cell_angle_alpha   79.12309353
_cell_angle_beta   91.75896716
_cell_angle_gamma   72.71057839
_symmetry_Int_Tables_number   1
_chemical_formula_structural   Li3MnNiP6O7
_chemical_formula_sum   'Li3 Mn1 Ni1 P6 O7'
_cell_volume   129.29761502
_cell_formula_units_Z   1
loop_
 _symmetry_equiv_pos_site_id
 _symmetry_equiv_pos_as_xyz
  1  'x, y, z'
loop_
 _atom_site_type_symbol
 _atom_site_label
 _atom_site_symmetry_multiplicity
 _atom_site_fract_x
 _atom_site_fract_y
 _atom_site_fract_z
 _atom_site_occupancy
  Li  Li0  1  0.94936222  0.88122267  0.29305351  1
  Li  Li1  1  0.42319196  0.44973081  0.46467155  1
  Li  Li2  1  0.59092462  0.48756334  0.71307462  1
  Ni  Ni3  1  0.76997566  0.13898464  0.05420661  1
  P  P4  1  0.94344062  0.49828857  0.58889061  1
  O  O5  1  0.85396159  0.66242212  0.96639776  1
  P  P6  1  0.56049687  0.94686246  0.07003932  1
  P  P7  1  0.04023567  0.09861533  0.23361851  1
  P  P8  1  0.01885338  0.59441561  0.51909310  1
  O  O9  1  0.97342396  0.50300872  0.02480626  1
  O  O10  1  0.33940154  0.97575051  0.96020168  1
  Mn  Mn11  1  0.38417286  0.07696907  0.49721852  1
  P  P12  1  0.48469922  0.96771890  0.56827217  1
  O  O13  1  0.95655656  0.60448468  0.35694265  1
  P  P14  1  0.05628065  0.07518447  0.65780461  1
  O  O15  1  0.34929907  0.97236884  0.05288299  1
  O  O16  1  0.03226266  0.96979922  0.39590341  1
  O  O17  1  0.05123270  0.59480906  0.27326638  1
