# generated using pymatgen
data_Li3FeCo2(PO2)4
_symmetry_space_group_name_H-M   'P 1'
_cell_length_a   5.07869106
_cell_length_b   4.83575642
_cell_length_c   4.86386287
_cell_angle_alpha   98.46645543
_cell_angle_beta   95.61100892
_cell_angle_gamma   55.72028158
_symmetry_Int_Tables_number   1
_chemical_formula_structural   Li3FeCo2(PO2)4
_chemical_formula_sum   'Li3 Fe1 Co2 P4 O8'
_cell_volume   97.61208266
_cell_formula_units_Z   1
loop_
 _symmetry_equiv_pos_site_id
 _symmetry_equiv_pos_as_xyz
  1  'x, y, z'
loop_
 _atom_site_type_symbol
 _atom_site_label
 _atom_site_symmetry_multiplicity
 _atom_site_fract_x
 _atom_site_fract_y
 _atom_site_fract_z
 _atom_site_occupancy
  Li  Li0  1  0.94216931  0.89335710  0.27707183  1
  Li  Li1  1  0.47006088  0.45572728  0.41508958  1
  P  P2  1  0.55130821  0.42384866  0.70496321  1
  Li  Li3  1  0.79900724  0.15202789  0.06229333  1
  P  P4  1  0.93518931  0.55171275  0.61770099  1
  P  P5  1  0.84108925  0.72872704  0.96338457  1
  Fe  Fe6  1  0.63518405  0.93819726  0.07957783  1
  Co  Co7  1  0.04799173  0.10794425  0.19549675  1
  O  O8  1  0.02261461  0.52614897  0.51253861  1
  O  O9  1  0.96780562  0.52658093  0.02952961  1
  O  O10  1  0.33910871  0.96467710  0.95657682  1
  O  O11  1  0.40167695  0.08281305  0.54080820  1
  P  P12  1  0.52694547  0.95912844  0.52910525  1
  Co  Co13  1  0.95025563  0.54070443  0.32781750  1
  O  O14  1  0.05889140  0.08173771  0.64963925  1
  O  O15  1  0.38770393  0.96434230  0.05621558  1
  O  O16  1  0.03799311  0.95913446  0.35427082  1
  O  O17  1  0.05703362  0.53588003  0.29364827  1
