# generated using pymatgen
data_Li3VFeCoBiMo(PO)5
_symmetry_space_group_name_H-M   'P 1'
_cell_length_a   7.43958045
_cell_length_b   6.58948955
_cell_length_c   6.99209778
_cell_angle_alpha   75.13199004
_cell_angle_beta   58.17600439
_cell_angle_gamma   89.40688749
_symmetry_Int_Tables_number   1
_chemical_formula_structural   Li3VFeCoBiMo(PO)5
_chemical_formula_sum   'Li3 V1 Fe1 Co1 Bi1 Mo1 P5 O5'
_cell_volume   278.21677856
_cell_formula_units_Z   1
loop_
 _symmetry_equiv_pos_site_id
 _symmetry_equiv_pos_as_xyz
  1  'x, y, z'
loop_
 _atom_site_type_symbol
 _atom_site_label
 _atom_site_symmetry_multiplicity
 _atom_site_fract_x
 _atom_site_fract_y
 _atom_site_fract_z
 _atom_site_occupancy
  Li  Li0  1  0.95194221  0.91611362  0.37266505  1
  Li  Li1  1  0.33665073  0.43641779  0.38021755  1
  Li  Li2  1  0.70306987  0.45129764  0.72684187  1
  Bi  Bi3  1  0.78596401  0.12277418  0.04760713  1
  O  O4  1  0.94751108  0.50227261  0.64676040  1
  V  V5  1  0.85897642  0.69845790  0.96723282  1
  P  P6  1  0.52974832  0.95595366  0.04968859  1
  Fe  Fe7  1  0.03648321  0.09809653  0.20762105  1
  P  P8  1  0.01825759  0.58380038  0.59613901  1
  P  P9  1  0.97365862  0.40111855  0.02245584  1
  Co  Co10  1  0.22921406  0.97608215  0.96144921  1
  Mo  Mo11  1  0.29841855  0.07316110  0.44421077  1
  O  O12  1  0.52429295  0.96981221  0.64922899  1
  P  P13  1  0.95867252  0.54243857  0.44627544  1
  O  O14  1  0.05627633  0.07336386  0.77166057  1
  P  P15  1  0.35237676  0.97598302  0.04926122  1
  O  O16  1  0.02976349  0.97243434  0.41127312  1
  O  O17  1  0.04770169  0.54927516  0.22014777  1
