# generated using pymatgen
data_Li4NiP4WO10
_symmetry_space_group_name_H-M   'P 1'
_cell_length_a   4.35830265
_cell_length_b   7.98808446
_cell_length_c   8.06109647
_cell_angle_alpha   85.75880841
_cell_angle_beta   103.71470253
_cell_angle_gamma   101.26304406
_symmetry_Int_Tables_number   1
_chemical_formula_structural   Li4NiP4WO10
_chemical_formula_sum   'Li4 Ni1 P4 W1 O10'
_cell_volume   267.27790266
_cell_formula_units_Z   1
loop_
 _symmetry_equiv_pos_site_id
 _symmetry_equiv_pos_as_xyz
  1  'x, y, z'
loop_
 _atom_site_type_symbol
 _atom_site_label
 _atom_site_symmetry_multiplicity
 _atom_site_fract_x
 _atom_site_fract_y
 _atom_site_fract_z
 _atom_site_occupancy
  Li  Li0  1  0.96270108  0.91474605  0.29150113  1
  Li  Li1  1  0.38589221  0.43092546  0.40187934  1
  Li  Li2  1  0.66257352  0.43118912  0.73640388  1
  Li  Li3  1  0.81808037  0.11775468  0.03507158  1
  P  P4  1  0.01317188  0.37112808  0.01077867  1
  Ni  Ni5  1  0.02634031  0.97538990  0.01541153  1
  O  O6  1  0.95687276  0.51784807  0.63528526  1
  O  O7  1  0.87715679  0.71676457  0.97150654  1
  O  O8  1  0.57138634  0.96688581  0.04327134  1
  O  O9  1  0.02939134  0.08645833  0.17335251  1
  O  O10  1  0.01256518  0.55977374  0.55234939  1
  O  O11  1  0.98112810  0.45593038  0.01229952  1
  O  O12  1  0.28187782  0.98847669  0.96698719  1
  P  P13  1  0.31909767  0.06589034  0.47030053  1
  P  P14  1  0.53563094  0.98326659  0.61174613  1
  O  O15  1  0.96757686  0.55843842  0.35413113  1
  P  P16  1  0.04206717  0.06577639  0.72551095  1
  O  O17  1  0.34341711  0.98799711  0.03566007  1
  W  W18  1  0.02220013  0.98482019  0.37200242  1
  O  O19  1  0.03708513  0.55147415  0.22684151  1
