# generated using pymatgen
data_Li4VP6O7
_symmetry_space_group_name_H-M   'P 1'
_cell_length_a   9.25137173
_cell_length_b   8.99887552
_cell_length_c   6.76876760
_cell_angle_alpha   80.43015081
_cell_angle_beta   76.10829035
_cell_angle_gamma   75.29667113
_symmetry_Int_Tables_number   1
_chemical_formula_structural   Li4VP6O7
_chemical_formula_sum   'Li4 V1 P6 O7'
_cell_volume   525.77883466
_cell_formula_units_Z   1
loop_
 _symmetry_equiv_pos_site_id
 _symmetry_equiv_pos_as_xyz
  1  'x, y, z'
loop_
 _atom_site_type_symbol
 _atom_site_label
 _atom_site_symmetry_multiplicity
 _atom_site_fract_x
 _atom_site_fract_y
 _atom_site_fract_z
 _atom_site_occupancy
  Li  Li0  1  0.94856083  0.89114022  0.30226180  1
  Li  Li1  1  0.41436547  0.44737893  0.43483576  1
  Li  Li2  1  0.57419682  0.46961892  0.71917051  1
  Li  Li3  1  0.78413963  0.13930887  0.05402789  1
  V  V4  1  0.94195247  0.51116437  0.60999095  1
  O  O5  1  0.85337400  0.69075316  0.96605003  1
  P  P6  1  0.57010734  0.94800937  0.06778111  1
  P  P7  1  0.04076050  0.10157453  0.21193683  1
  P  P8  1  0.01984339  0.57929379  0.53829879  1
  O  O9  1  0.97220218  0.49165183  0.02552832  1
  O  O10  1  0.31479830  0.97300577  0.95990896  1
  P  P11  1  0.38419640  0.07781614  0.50642478  1
  O  O12  1  0.50334555  0.96582848  0.56993121  1
  O  O13  1  0.95564562  0.57843292  0.35524103  1
  O  O14  1  0.05560564  0.07659444  0.65878218  1
  P  P15  1  0.34985244  0.97076631  0.04920726  1
  P  P16  1  0.03334492  0.96960437  0.40498266  1
  O  O17  1  0.05210917  0.55714160  0.28165790  1
