# generated using pymatgen
data_Li3MnV2CrCoP5O7
_symmetry_space_group_name_H-M   'P 1'
_cell_length_a   5.46307223
_cell_length_b   8.06349300
_cell_length_c   7.52550042
_cell_angle_alpha   83.78882255
_cell_angle_beta   72.49021831
_cell_angle_gamma   90.56029655
_symmetry_Int_Tables_number   1
_chemical_formula_structural   Li3MnV2CrCoP5O7
_chemical_formula_sum   'Li3 Mn1 V2 Cr1 Co1 P5 O7'
_cell_volume   313.97961247
_cell_formula_units_Z   1
loop_
 _symmetry_equiv_pos_site_id
 _symmetry_equiv_pos_as_xyz
  1  'x, y, z'
loop_
 _atom_site_type_symbol
 _atom_site_label
 _atom_site_symmetry_multiplicity
 _atom_site_fract_x
 _atom_site_fract_y
 _atom_site_fract_z
 _atom_site_occupancy
  Li  Li0  1  0.96112388  0.91407865  0.30042791  1
  Li  Li1  1  0.44094166  0.44082913  0.42721131  1
  Li  Li2  1  0.57540309  0.45216393  0.73317486  1
  V  V3  1  0.80718899  0.11878449  0.04065192  1
  Cr  Cr4  1  0.01417704  0.40275255  0.01161545  1
  P  P5  1  0.02736718  0.97286451  0.01808875  1
  V  V6  1  0.95500606  0.49821892  0.63805354  1
  O  O7  1  0.87540138  0.73005742  0.97111088  1
  Mn  Mn8  1  0.57999969  0.96034569  0.04835738  1
  Co  Co9  1  0.02994379  0.08823739  0.19143522  1
  O  O10  1  0.01319915  0.56371003  0.55132759  1
  O  O11  1  0.98014253  0.48395863  0.01384787  1
  O  O12  1  0.32777321  0.99008107  0.96623975  1
  O  O13  1  0.34808278  0.06802525  0.54452503  1
  O  O14  1  0.52467334  0.98139000  0.55147487  1
  O  O15  1  0.96710515  0.58672053  0.33154958  1
  P  P16  1  0.04175099  0.06710697  0.65734994  1
  P  P17  1  0.34021917  0.98372424  0.03791118  1
  P  P18  1  0.02331592  0.98495740  0.40648675  1
  P  P19  1  0.03943341  0.55635470  0.27988663  1
