# generated using pymatgen
data_Li6MnCoP6O7
_symmetry_space_group_name_H-M   'P 1'
_cell_length_a   5.65359962
_cell_length_b   8.09716676
_cell_length_c   4.36928554
_cell_angle_alpha   57.92305240
_cell_angle_beta   67.34330200
_cell_angle_gamma   62.58466247
_symmetry_Int_Tables_number   1
_chemical_formula_structural   Li6MnCoP6O7
_chemical_formula_sum   'Li6 Mn1 Co1 P6 O7'
_cell_volume   147.79281228
_cell_formula_units_Z   1
loop_
 _symmetry_equiv_pos_site_id
 _symmetry_equiv_pos_as_xyz
  1  'x, y, z'
loop_
 _atom_site_type_symbol
 _atom_site_label
 _atom_site_symmetry_multiplicity
 _atom_site_fract_x
 _atom_site_fract_y
 _atom_site_fract_z
 _atom_site_occupancy
  Li  Li0  1  0.96636313  0.95482725  0.34500167  1
  Li  Li1  1  0.38641098  0.44352669  0.30707827  1
  Li  Li2  1  0.62008876  0.36741257  0.75766897  1
  Li  Li3  1  0.85896081  0.10119757  0.02771707  1
  Li  Li4  1  0.97334087  0.97482967  0.66631699  1
  O  O5  1  0.01132555  0.30098021  0.00659847  1
  Co  Co6  1  0.02206793  0.98476046  0.01092967  1
  P  P7  1  0.96423942  0.54915589  0.72056562  1
  P  P8  1  0.89011043  0.79895252  0.97301513  1
  P  P9  1  0.62347353  0.97420847  0.02958346  1
  P  P10  1  0.02225991  0.08126415  0.13479939  1
  Li  Li11  1  0.01047826  0.50063765  0.62989557  1
  P  P12  1  0.98344672  0.38920531  0.00739693  1
  O  O13  1  0.24388878  0.99529135  0.96886635  1
  O  O14  1  0.27052683  0.06246392  0.56047374  1
  O  O15  1  0.59278375  0.99016839  0.55820519  1
  P  P16  1  0.97172463  0.47521073  0.37812725  1
  O  O17  1  0.03424146  0.06369190  0.76375425  1
  O  O18  1  0.37247539  0.99141324  0.02483219  1
  O  O19  1  0.01844673  0.99243981  0.40517288  1
  Mn  Mn20  1  0.03233420  0.46236342  0.24751870  1
