# generated using pymatgen
data_Li4P6WO7
_symmetry_space_group_name_H-M   'P 1'
_cell_length_a   6.35370295
_cell_length_b   3.63235580
_cell_length_c   4.47717992
_cell_angle_alpha   80.94847341
_cell_angle_beta   95.99697332
_cell_angle_gamma   111.31041802
_symmetry_Int_Tables_number   1
_chemical_formula_structural   Li4P6WO7
_chemical_formula_sum   'Li4 P6 W1 O7'
_cell_volume   94.93889619
_cell_formula_units_Z   1
loop_
 _symmetry_equiv_pos_site_id
 _symmetry_equiv_pos_as_xyz
  1  'x, y, z'
loop_
 _atom_site_type_symbol
 _atom_site_label
 _atom_site_symmetry_multiplicity
 _atom_site_fract_x
 _atom_site_fract_y
 _atom_site_fract_z
 _atom_site_occupancy
  Li  Li0  1  0.94690019  0.92143589  0.26594168  1
  Li  Li1  1  0.47997659  0.43397716  0.35025534  1
  Li  Li2  1  0.53326076  0.37990332  0.72111601  1
  Li  Li3  1  0.82489049  0.13692544  0.05400121  1
  P  P4  1  0.94100749  0.59029716  0.66270489  1
  O  O5  1  0.84908140  0.79551047  0.96424031  1
  P  P6  1  0.64685214  0.94296497  0.06218350  1
  P  P7  1  0.04333516  0.10633013  0.16224931  1
  O  O8  1  0.02076765  0.47556201  0.56163710  1
  O  O9  1  0.97005880  0.51535863  0.02486187  1
  O  O10  1  0.29471573  0.97102678  0.95859724  1
  P  P11  1  0.32045418  0.08058921  0.59414887  1
  O  O12  1  0.57533360  0.96408623  0.51550746  1
  P  P13  1  0.95458698  0.48834887  0.33389813  1
  O  O14  1  0.05471452  0.07896485  0.70028841  1
  O  O15  1  0.39848915  0.96638614  0.04886319  1
  W  W16  1  0.03315300  0.96360981  0.35812491  1
  P  P17  1  0.05099273  0.49481517  0.30055553  1
