# generated using pymatgen
data_Li4Co2(PO3)3
_symmetry_space_group_name_H-M   'P 1'
_cell_length_a   6.41317830
_cell_length_b   7.11530030
_cell_length_c   5.87814524
_cell_angle_alpha   97.28502926
_cell_angle_beta   92.32605154
_cell_angle_gamma   94.81868643
_symmetry_Int_Tables_number   1
_chemical_formula_structural   Li4Co2(PO3)3
_chemical_formula_sum   'Li4 Co2 P3 O9'
_cell_volume   264.76758095
_cell_formula_units_Z   1
loop_
 _symmetry_equiv_pos_site_id
 _symmetry_equiv_pos_as_xyz
  1  'x, y, z'
loop_
 _atom_site_type_symbol
 _atom_site_label
 _atom_site_symmetry_multiplicity
 _atom_site_fract_x
 _atom_site_fract_y
 _atom_site_fract_z
 _atom_site_occupancy
  Li  Li0  1  0.94387257  0.89706802  0.27881870  1
  Li  Li1  1  0.37395993  0.42526367  0.40780157  1
  Li  Li2  1  0.63895899  0.45915571  0.71454728  1
  Li  Li3  1  0.78335172  0.13837138  0.05570207  1
  P  P4  1  0.93928200  0.57340670  0.61024851  1
  P  P5  1  0.84530848  0.68953454  0.96448469  1
  O  O6  1  0.56696260  0.94549584  0.06744529  1
  O  O7  1  0.04572342  0.10536836  0.20056267  1
  Co  Co8  1  0.02120083  0.55263340  0.53769338  1
  O  O9  1  0.96961808  0.49118522  0.02792588  1
  Co  Co10  1  0.26509431  0.96732038  0.95825225  1
  O  O11  1  0.34540078  0.08015310  0.46622989  1
  O  O12  1  0.50915366  0.96110123  0.63068789  1
  O  O13  1  0.95308423  0.55059987  0.38579607  1
  O  O14  1  0.06166529  0.07858005  0.72395664  1
  O  O15  1  0.37933564  0.96671134  0.05286226  1
  P  P16  1  0.03482612  0.96130264  0.36734551  1
  O  O17  1  0.05234660  0.56736302  0.22291112  1
