# generated using pymatgen
data_Li4CrNiP9O5
_symmetry_space_group_name_H-M   'P 1'
_cell_length_a   7.72861323
_cell_length_b   5.82482908
_cell_length_c   5.60068466
_cell_angle_alpha   85.91310946
_cell_angle_beta   74.74239658
_cell_angle_gamma   102.33702934
_symmetry_Int_Tables_number   1
_chemical_formula_structural   Li4CrNiP9O5
_chemical_formula_sum   'Li4 Cr1 Ni1 P9 O5'
_cell_volume   235.44237456
_cell_formula_units_Z   1
loop_
 _symmetry_equiv_pos_site_id
 _symmetry_equiv_pos_as_xyz
  1  'x, y, z'
loop_
 _atom_site_type_symbol
 _atom_site_label
 _atom_site_symmetry_multiplicity
 _atom_site_fract_x
 _atom_site_fract_y
 _atom_site_fract_z
 _atom_site_occupancy
  Li  Li0  1  0.96414661  0.95583582  0.34485102  1
  Li  Li1  1  0.35225359  0.46150398  0.31746665  1
  Li  Li2  1  0.63882899  0.37330419  0.75269133  1
  Cr  Cr3  1  0.84818983  0.10300251  0.02989011  1
  O  O4  1  0.01252649  0.29740056  0.00895867  1
  P  P5  1  0.02397774  0.98173064  0.01323451  1
  P  P6  1  0.96182472  0.53515923  0.70539063  1
  Li  Li7  1  0.88501328  0.79249322  0.97193766  1
  Ni  Ni8  1  0.59142292  0.97182357  0.03186363  1
  P  P9  1  0.02537060  0.08440273  0.14004318  1
  O  O10  1  0.01124227  0.51669675  0.62799531  1
  P  P11  1  0.98207957  0.39120188  0.00917276  1
  P  P12  1  0.21243909  0.99170280  0.96837842  1
  O  O13  1  0.24610531  0.06335707  0.50252467  1
  P  P14  1  0.58794057  0.98707795  0.59268522  1
  P  P15  1  0.97081351  0.48665905  0.41375405  1
  O  O16  1  0.03945498  0.06507464  0.78859723  1
  P  P17  1  0.36859500  0.98976010  0.02837080  1
  O  O18  1  0.01898134  0.98882550  0.39617315  1
  P  P19  1  0.03371051  0.48848501  0.23569359  1
