# generated using pymatgen
data_Li4PHO13
_symmetry_space_group_name_H-M   'P 1'
_cell_length_a   3.87082907
_cell_length_b   4.46983138
_cell_length_c   6.10562025
_cell_angle_alpha   72.43673802
_cell_angle_beta   99.86246896
_cell_angle_gamma   91.85619295
_symmetry_Int_Tables_number   1
_chemical_formula_structural   Li4PHO13
_chemical_formula_sum   'Li4 P1 H1 O13'
_cell_volume   99.20539122
_cell_formula_units_Z   1
loop_
 _symmetry_equiv_pos_site_id
 _symmetry_equiv_pos_as_xyz
  1  'x, y, z'
loop_
 _atom_site_type_symbol
 _atom_site_label
 _atom_site_symmetry_multiplicity
 _atom_site_fract_x
 _atom_site_fract_y
 _atom_site_fract_z
 _atom_site_occupancy
  Li  Li0  1  0.95122945  0.88932735  0.36382133  1
  Li  Li1  1  0.37261045  0.49558532  0.43848184  1
  Li  Li2  1  0.62049001  0.48888123  0.72329068  1
  Li  Li3  1  0.76699358  0.13147616  0.05241826  1
  O  O4  1  0.03654189  0.96120691  0.02674058  1
  O  O5  1  0.94546562  0.44962299  0.62377316  1
  O  O6  1  0.85793626  0.66931480  0.96726483  1
  P  P7  1  0.52542198  0.95114583  0.05709352  1
  O  O8  1  0.03567477  0.09815915  0.23547691  1
  O  O9  1  0.01826277  0.62222475  0.56288636  1
  O  O10  1  0.97361642  0.42849317  0.02400626  1
  O  O11  1  0.28872457  0.97580236  0.96108335  1
  H  H12  1  0.35742280  0.07535361  0.46914014  1
  O  O13  1  0.49862269  0.97046763  0.58610654  1
  O  O14  1  0.95758277  0.59628242  0.40904656  1
  O  O15  1  0.05586743  0.07477310  0.68791282  1
  O  O16  1  0.33552313  0.97312230  0.04909523  1
  O  O17  1  0.03025594  0.97433686  0.43567732  1
  O  O18  1  0.04956353  0.57461768  0.25244302  1
