# generated using pymatgen
data_Li4VCrFeP4O9
_symmetry_space_group_name_H-M   'P 1'
_cell_length_a   4.07020356
_cell_length_b   6.25016223
_cell_length_c   7.49769529
_cell_angle_alpha   82.81075205
_cell_angle_beta   59.83326373
_cell_angle_gamma   66.70901493
_symmetry_Int_Tables_number   1
_chemical_formula_structural   Li4VCrFeP4O9
_chemical_formula_sum   'Li4 V1 Cr1 Fe1 P4 O9'
_cell_volume   150.81557296
_cell_formula_units_Z   1
loop_
 _symmetry_equiv_pos_site_id
 _symmetry_equiv_pos_as_xyz
  1  'x, y, z'
loop_
 _atom_site_type_symbol
 _atom_site_label
 _atom_site_symmetry_multiplicity
 _atom_site_fract_x
 _atom_site_fract_y
 _atom_site_fract_z
 _atom_site_occupancy
  Li  Li0  1  0.95974797  0.93012184  0.23697208  1
  Li  Li1  1  0.54283297  0.42435038  0.38032350  1
  Li  Li2  1  0.47097704  0.37604791  0.72972375  1
  Li  Li3  1  0.84557009  0.12610197  0.04128260  1
  V  V4  1  0.01513479  0.44036883  0.01150481  1
  P  P5  1  0.02639598  0.97195500  0.01876773  1
  O  O6  1  0.95409387  0.60001439  0.65933156  1
  Cr  Cr7  1  0.87504107  0.80061513  0.97017294  1
  O  O8  1  0.69236696  0.95879638  0.05393865  1
  P  P9  1  0.03147359  0.09034382  0.14226379  1
  O  O10  1  0.01423952  0.46193060  0.54029447  1
  O  O11  1  0.97935253  0.55974960  0.01325919  1
  Fe  Fe12  1  0.36985332  0.98621470  0.96543944  1
  O  O13  1  0.35810199  0.07002623  0.65450960  1
  P  P14  1  0.57410032  0.97903013  0.45444530  1
  O  O15  1  0.96507752  0.50678730  0.26218939  1
  P  P16  1  0.03874666  0.06859711  0.62083775  1
  O  O17  1  0.38655841  0.98126739  0.03266370  1
  O  O18  1  0.02425995  0.98215216  0.37125462  1
  O  O19  1  0.04062070  0.49285981  0.34745011  1
