# generated using pymatgen
data_Li2V2CrNiPO11
_symmetry_space_group_name_H-M   'P 1'
_cell_length_a   5.28835987
_cell_length_b   9.27449495
_cell_length_c   8.56566311
_cell_angle_alpha   96.17427656
_cell_angle_beta   108.77209333
_cell_angle_gamma   112.66493058
_symmetry_Int_Tables_number   1
_chemical_formula_structural   Li2V2CrNiPO11
_chemical_formula_sum   'Li2 V2 Cr1 Ni1 P1 O11'
_cell_volume   353.92673232
_cell_formula_units_Z   1
loop_
 _symmetry_equiv_pos_site_id
 _symmetry_equiv_pos_as_xyz
  1  'x, y, z'
loop_
 _atom_site_type_symbol
 _atom_site_label
 _atom_site_symmetry_multiplicity
 _atom_site_fract_x
 _atom_site_fract_y
 _atom_site_fract_z
 _atom_site_occupancy
  Li  Li0  1  0.95167845  0.91441619  0.34816930  1
  V  V1  1  0.34351245  0.47685501  0.37915874  1
  Cr  Cr2  1  0.65344548  0.43892333  0.73018509  1
  Li  Li3  1  0.79603875  0.12486360  0.04646741  1
  O  O4  1  0.94741195  0.49753261  0.65396792  1
  O  O5  1  0.85929805  0.69936454  0.96784931  1
  V  V6  1  0.54497564  0.95611560  0.05101516  1
  P  P7  1  0.03493693  0.09702908  0.19719657  1
  Ni  Ni8  1  0.01734755  0.57092637  0.58589518  1
  O  O9  1  0.97458494  0.39998147  0.02096060  1
  O  O10  1  0.24442023  0.97637266  0.96192992  1
  O  O11  1  0.32101524  0.07252346  0.44871438  1
  O  O12  1  0.53574467  0.97231013  0.63641590  1
  O  O13  1  0.96032369  0.54379493  0.42202097  1
  O  O14  1  0.05297172  0.07372089  0.74792606  1
  O  O15  1  0.35375327  0.97522640  0.04391036  1
  O  O16  1  0.02939991  0.97308940  0.39785311  1
  O  O17  1  0.04719305  0.52899826  0.22119105  1
