# generated using pymatgen
data_Li4ZnP5O8
_symmetry_space_group_name_H-M   'P 1'
_cell_length_a   5.01953118
_cell_length_b   5.90488477
_cell_length_c   6.39285017
_cell_angle_alpha   97.99309392
_cell_angle_beta   101.47255822
_cell_angle_gamma   92.11822274
_symmetry_Int_Tables_number   1
_chemical_formula_structural   Li4ZnP5O8
_chemical_formula_sum   'Li4 Zn1 P5 O8'
_cell_volume   183.48449983
_cell_formula_units_Z   1
loop_
 _symmetry_equiv_pos_site_id
 _symmetry_equiv_pos_as_xyz
  1  'x, y, z'
loop_
 _atom_site_type_symbol
 _atom_site_label
 _atom_site_symmetry_multiplicity
 _atom_site_fract_x
 _atom_site_fract_y
 _atom_site_fract_z
 _atom_site_occupancy
  Li  Li0  1  0.95145059  0.91384381  0.36977112  1
  Li  Li1  1  0.41664681  0.44003630  0.39246708  1
  Li  Li2  1  0.65006661  0.43958461  0.72459656  1
  Li  Li3  1  0.79927814  0.12753144  0.05415083  1
  O  O4  1  0.94681644  0.50524926  0.65610534  1
  P  P5  1  0.86006927  0.70789731  0.96699071  1
  P  P6  1  0.56597757  0.95245355  0.05455421  1
  O  O7  1  0.03480960  0.09766835  0.20489718  1
  O  O8  1  0.01852767  0.54726082  0.58109063  1
  P  P9  1  0.97325921  0.42149588  0.02227590  1
  O  O10  1  0.26824278  0.97897846  0.96092921  1
  O  O11  1  0.33570018  0.07420659  0.53192252  1
  P  P12  1  0.53788507  0.96955323  0.57892650  1
  O  O13  1  0.95885354  0.53997004  0.38671878  1
  Zn  Zn14  1  0.05227264  0.07363410  0.72275829  1
  O  O15  1  0.36751065  0.97467357  0.04564535  1
  O  O16  1  0.02949312  0.97355139  0.42786208  1
  P  P17  1  0.04882447  0.53107667  0.26382747  1
