# generated using pymatgen
data_Li2P3O4
_symmetry_space_group_name_H-M   'P 1'
_cell_length_a   5.30950332
_cell_length_b   8.23724911
_cell_length_c   6.04009062
_cell_angle_alpha   59.09805740
_cell_angle_beta   83.49471948
_cell_angle_gamma   84.67888704
_symmetry_Int_Tables_number   1
_chemical_formula_structural   Li2P3O4
_chemical_formula_sum   'Li4 P6 O8'
_cell_volume   225.02387646
_cell_formula_units_Z   2
loop_
 _symmetry_equiv_pos_site_id
 _symmetry_equiv_pos_as_xyz
  1  'x, y, z'
loop_
 _atom_site_type_symbol
 _atom_site_label
 _atom_site_symmetry_multiplicity
 _atom_site_fract_x
 _atom_site_fract_y
 _atom_site_fract_z
 _atom_site_occupancy
  Li  Li0  1  0.95592737  0.92228991  0.33742183  1
  Li  Li1  1  0.44231164  0.42848894  0.38827586  1
  Li  Li2  1  0.58253843  0.41639814  0.73067492  1
  Li  Li3  1  0.81357312  0.12263235  0.04914251  1
  P  P4  1  0.95109159  0.51265925  0.66782153  1
  O  O5  1  0.86694467  0.75141793  0.96846437  1
  P  P6  1  0.60108888  0.95560163  0.05115522  1
  P  P7  1  0.03275206  0.09367236  0.18264407  1
  O  O8  1  0.01652980  0.53991348  0.58167726  1
  P  P9  1  0.97621262  0.44592676  0.01926467  1
  O  O10  1  0.30096626  0.98148209  0.96272755  1
  O  O11  1  0.33492956  0.07213899  0.56733388  1
  P  P12  1  0.55178553  0.97521132  0.55395955  1
  O  O13  1  0.96237838  0.53958756  0.35516095  1
  O  O14  1  0.04655218  0.07189928  0.69190270  1
  P  P15  1  0.35341114  0.97834826  0.04106389  1
  O  O16  1  0.02722082  0.97777188  0.42212597  1
  O  O17  1  0.04426348  0.51728725  0.29020110  1
