# generated using pymatgen
data_Li5FeP5O7
_symmetry_space_group_name_H-M   'P 1'
_cell_length_a   9.07271811
_cell_length_b   7.83785420
_cell_length_c   6.04070887
_cell_angle_alpha   64.50716944
_cell_angle_beta   78.15838724
_cell_angle_gamma   107.38406468
_symmetry_Int_Tables_number   1
_chemical_formula_structural   Li5FeP5O7
_chemical_formula_sum   'Li5 Fe1 P5 O7'
_cell_volume   341.11523246
_cell_formula_units_Z   1
loop_
 _symmetry_equiv_pos_site_id
 _symmetry_equiv_pos_as_xyz
  1  'x, y, z'
loop_
 _atom_site_type_symbol
 _atom_site_label
 _atom_site_symmetry_multiplicity
 _atom_site_fract_x
 _atom_site_fract_y
 _atom_site_fract_z
 _atom_site_occupancy
  Li  Li0  1  0.95231742  0.92647314  0.30751944  1
  Li  Li1  1  0.38837066  0.44411010  0.34938675  1
  Li  Li2  1  0.63275367  0.40161890  0.72931623  1
  Li  Li3  1  0.81479865  0.12574211  0.04331836  1
  O  O4  1  0.94790316  0.57489997  0.65628707  1
  O  O5  1  0.86097258  0.75802016  0.96730733  1
  Fe  Fe6  1  0.61292213  0.95356816  0.05175932  1
  Li  Li7  1  0.03765644  0.09817016  0.16449636  1
  O  O8  1  0.01736863  0.51394761  0.58013159  1
  O  O9  1  0.97416610  0.45590544  0.02029404  1
  O  O10  1  0.24592833  0.97465831  0.96214867  1
  O  O11  1  0.28988102  0.07363933  0.49791831  1
  P  P12  1  0.57219815  0.97027910  0.59863347  1
  P  P13  1  0.95907813  0.49466273  0.37544453  1
  O  O14  1  0.05279243  0.07411949  0.75089777  1
  P  P15  1  0.37811029  0.97454482  0.04208232  1
  P  P16  1  0.02860516  0.97253925  0.37355146  1
  P  P17  1  0.04578720  0.51471007  0.24236266  1
