# generated using pymatgen
data_Li2CrFe2Ni(PO)6
_symmetry_space_group_name_H-M   'P 1'
_cell_length_a   8.07143506
_cell_length_b   6.33092520
_cell_length_c   9.06145567
_cell_angle_alpha   94.27832534
_cell_angle_beta   74.70822826
_cell_angle_gamma   57.85120371
_symmetry_Int_Tables_number   1
_chemical_formula_structural   Li2CrFe2Ni(PO)6
_chemical_formula_sum   'Li2 Cr1 Fe2 Ni1 P6 O6'
_cell_volume   364.82758287
_cell_formula_units_Z   1
loop_
 _symmetry_equiv_pos_site_id
 _symmetry_equiv_pos_as_xyz
  1  'x, y, z'
loop_
 _atom_site_type_symbol
 _atom_site_label
 _atom_site_symmetry_multiplicity
 _atom_site_fract_x
 _atom_site_fract_y
 _atom_site_fract_z
 _atom_site_occupancy
  Li  Li0  1  0.94467467  0.90383768  0.24797192  1
  Li  Li1  1  0.47617871  0.40839490  0.38571927  1
  Cr  Cr2  1  0.56320775  0.39539751  0.70894879  1
  Fe  Fe3  1  0.81476694  0.14619818  0.05485033  1
  O  O4  1  0.93822116  0.60172045  0.63551533  1
  Fe  Fe5  1  0.84597653  0.75192988  0.96430987  1
  O  O6  1  0.64418352  0.94052732  0.07051713  1
  P  P7  1  0.04683274  0.10713668  0.16633840  1
  O  O8  1  0.02179542  0.47778752  0.53479052  1
  Ni  Ni9  1  0.96953565  0.53160959  0.02702960  1
  O  O10  1  0.33152440  0.96777856  0.95776981  1
  O  O11  1  0.38079399  0.08163656  0.58508205  1
  P  P12  1  0.53996277  0.96231848  0.55123395  1
  P  P13  1  0.95283097  0.50659448  0.31358477  1
  P  P14  1  0.05463473  0.08030942  0.65830809  1
  O  O15  1  0.38728642  0.96697414  0.04974375  1
  P  P16  1  0.03552538  0.96136099  0.34726253  1
  P  P17  1  0.05392238  0.51174629  0.29106936  1
