# generated using pymatgen
data_Li3BiP5O9
_symmetry_space_group_name_H-M   'P 1'
_cell_length_a   8.25532232
_cell_length_b   5.05394097
_cell_length_c   5.58786386
_cell_angle_alpha   88.26794606
_cell_angle_beta   99.57710290
_cell_angle_gamma   84.29890124
_symmetry_Int_Tables_number   1
_chemical_formula_structural   Li3BiP5O9
_chemical_formula_sum   'Li3 Bi1 P5 O9'
_cell_volume   228.49011864
_cell_formula_units_Z   1
loop_
 _symmetry_equiv_pos_site_id
 _symmetry_equiv_pos_as_xyz
  1  'x, y, z'
loop_
 _atom_site_type_symbol
 _atom_site_label
 _atom_site_symmetry_multiplicity
 _atom_site_fract_x
 _atom_site_fract_y
 _atom_site_fract_z
 _atom_site_occupancy
  Li  Li0  1  0.94184393  0.90100873  0.33651558  1
  Li  Li1  1  0.39808029  0.43708566  0.39635354  1
  Bi  Bi2  1  0.61935347  0.44834024  0.71125489  1
  Li  Li3  1  0.77655178  0.14127678  0.06213347  1
  P  P4  1  0.93493867  0.52052623  0.63800865  1
  P  P5  1  0.84005362  0.70659178  0.96202171  1
  P  P6  1  0.57015890  0.93939775  0.06632415  1
  P  P7  1  0.04651784  0.10957496  0.20923816  1
  O  O8  1  0.02372557  0.55957735  0.57177037  1
  O  O9  1  0.96657163  0.45421758  0.03180232  1
  O  O10  1  0.26268560  0.96349907  0.95621669  1
  O  O11  1  0.33154145  0.08350307  0.49391118  1
  O  O12  1  0.52852750  0.95775932  0.60445243  1
  O  O13  1  0.94945008  0.53729844  0.40310839  1
  O  O14  1  0.06475829  0.08266468  0.72603643  1
  O  O15  1  0.36540827  0.96220887  0.05704108  1
  O  O16  1  0.03768057  0.95896971  0.40313965  1
  P  P17  1  0.05737956  0.54045969  0.25643304  1
