# generated using pymatgen
data_Li3Mn(P3O5)2
_symmetry_space_group_name_H-M   'P 1'
_cell_length_a   4.88797959
_cell_length_b   7.97155891
_cell_length_c   4.17656341
_cell_angle_alpha   63.14633172
_cell_angle_beta   72.72749567
_cell_angle_gamma   88.31820434
_symmetry_Int_Tables_number   1
_chemical_formula_structural   Li3Mn(P3O5)2
_chemical_formula_sum   'Li3 Mn1 P6 O10'
_cell_volume   137.58973351
_cell_formula_units_Z   1
loop_
 _symmetry_equiv_pos_site_id
 _symmetry_equiv_pos_as_xyz
  1  'x, y, z'
loop_
 _atom_site_type_symbol
 _atom_site_label
 _atom_site_symmetry_multiplicity
 _atom_site_fract_x
 _atom_site_fract_y
 _atom_site_fract_z
 _atom_site_occupancy
  Li  Li0  1  0.95990556  0.92756987  0.32646656  1
  Li  Li1  1  0.36668056  0.47273138  0.37559286  1
  Mn  Mn2  1  0.65085083  0.42787802  0.73777020  1
  Li  Li3  1  0.81408316  0.11654861  0.03337459  1
  O  O4  1  0.01434084  0.34114462  0.01257366  1
  P  P5  1  0.02731145  0.97524124  0.01767712  1
  P  P6  1  0.95542306  0.50348538  0.65585291  1
  P  P7  1  0.87503141  0.72767490  0.97091031  1
  O  O8  1  0.55558491  0.96533912  0.04191063  1
  O  O9  1  0.03059845  0.08748373  0.17848028  1
  P  P10  1  0.01289805  0.57915449  0.57699919  1
  O  O11  1  0.97993422  0.41799507  0.01310361  1
  O  O12  1  0.23915286  0.98559874  0.96656537  1
  P  P13  1  0.29782957  0.06693256  0.45002422  1
  O  O14  1  0.54152191  0.98257965  0.61523199  1
  P  P15  1  0.96695524  0.53911006  0.40006283  1
  O  O16  1  0.04577038  0.06766519  0.76229978  1
  O  O17  1  0.35231003  0.98579705  0.03782035  1
  O  O18  1  0.02299732  0.98328948  0.37314087  1
  O  O19  1  0.03793668  0.54250389  0.22441193  1
