# generated using pymatgen
data_Li(PO)2
_symmetry_space_group_name_H-M   'P 1'
_cell_length_a   7.53349883
_cell_length_b   8.43831566
_cell_length_c   8.50600667
_cell_angle_alpha   104.63928030
_cell_angle_beta   87.63442291
_cell_angle_gamma   76.50812239
_symmetry_Int_Tables_number   1
_chemical_formula_structural   Li(PO)2
_chemical_formula_sum   'Li4 P8 O8'
_cell_volume   505.83939503
_cell_formula_units_Z   4
loop_
 _symmetry_equiv_pos_site_id
 _symmetry_equiv_pos_as_xyz
  1  'x, y, z'
loop_
 _atom_site_type_symbol
 _atom_site_label
 _atom_site_symmetry_multiplicity
 _atom_site_fract_x
 _atom_site_fract_y
 _atom_site_fract_z
 _atom_site_occupancy
  Li  Li0  1  0.96352631  0.93712467  0.28949672  1
  Li  Li1  1  0.45068473  0.44429383  0.36114496  1
  Li  Li2  1  0.55583608  0.38719466  0.74182332  1
  Li  Li3  1  0.83952397  0.11332700  0.03391564  1
  O  O4  1  0.01257536  0.37702242  0.00904111  1
  P  P5  1  0.02506127  0.97695798  0.01490749  1
  P  P6  1  0.95891392  0.55644435  0.66912127  1
  P  P7  1  0.88057429  0.77757722  0.97181392  1
  P  P8  1  0.62523448  0.96557897  0.04208797  1
  O  O9  1  0.02712839  0.08551182  0.14865276  1
  O  O10  1  0.01147910  0.49349234  0.55958718  1
  P  P11  1  0.98173440  0.47026148  0.01064597  1
  O  O12  1  0.27665666  0.99141896  0.96787477  1
  O  O13  1  0.30944514  0.06517449  0.56407398  1
  O  O14  1  0.57626927  0.98570973  0.51452351  1
  O  O15  1  0.96910208  0.51597160  0.31917867  1
  P  P16  1  0.03749616  0.06522708  0.72015589  1
  P  P17  1  0.38311660  0.98847312  0.03141959  1
  O  O18  1  0.02091865  0.98651969  0.36799222  1
  P  P19  1  0.03586155  0.51141286  0.27691448  1
