# generated using pymatgen
data_Li4VNiP6WO6
_symmetry_space_group_name_H-M   'P 1'
_cell_length_a   5.40071018
_cell_length_b   3.24319909
_cell_length_c   5.85150892
_cell_angle_alpha   116.53704271
_cell_angle_beta   80.85021929
_cell_angle_gamma   76.55359618
_symmetry_Int_Tables_number   1
_chemical_formula_structural   Li4VNiP6WO6
_chemical_formula_sum   'Li4 V1 Ni1 P6 W1 O6'
_cell_volume   85.01269991
_cell_formula_units_Z   1
loop_
 _symmetry_equiv_pos_site_id
 _symmetry_equiv_pos_as_xyz
  1  'x, y, z'
loop_
 _atom_site_type_symbol
 _atom_site_label
 _atom_site_symmetry_multiplicity
 _atom_site_fract_x
 _atom_site_fract_y
 _atom_site_fract_z
 _atom_site_occupancy
  Li  Li0  1  0.95411998  0.89216024  0.33540016  1
  Li  Li1  1  0.34818214  0.46948221  0.44745570  1
  Li  Li2  1  0.61834013  0.49999276  0.72201335  1
  Li  Li3  1  0.76847982  0.12955193  0.04710066  1
  P  P4  1  0.03435158  0.96484905  0.02370224  1
  V  V5  1  0.94625241  0.46809515  0.60408461  1
  W  W6  1  0.85834122  0.67725301  0.96832681  1
  P  P7  1  0.52915603  0.95233154  0.05466916  1
  P  P8  1  0.03502381  0.09361467  0.22794428  1
  P  P9  1  0.01635337  0.62622976  0.55287427  1
  O  O10  1  0.97556436  0.45462281  0.02091973  1
  O  O11  1  0.28489903  0.97835475  0.96337742  1
  Ni  Ni12  1  0.33704910  0.07339215  0.44666234  1
  O  O13  1  0.48779860  0.97202110  0.60268539  1
  P  P14  1  0.96042442  0.60822362  0.40046909  1
  O  O15  1  0.05386006  0.07236330  0.70511925  1
  P  P16  1  0.30505773  0.97705966  0.04802191  1
  O  O17  1  0.02855146  0.97659600  0.41620776  1
  O  O18  1  0.04656267  0.57926852  0.25174674  1
