# generated using pymatgen
data_Li4MnFe2P5O8
_symmetry_space_group_name_H-M   'P 1'
_cell_length_a   5.51364768
_cell_length_b   6.64446977
_cell_length_c   4.20239221
_cell_angle_alpha   61.44746061
_cell_angle_beta   81.73755729
_cell_angle_gamma   89.58456242
_symmetry_Int_Tables_number   1
_chemical_formula_structural   Li4MnFe2P5O8
_chemical_formula_sum   'Li4 Mn1 Fe2 P5 O8'
_cell_volume   133.49319030
_cell_formula_units_Z   1
loop_
 _symmetry_equiv_pos_site_id
 _symmetry_equiv_pos_as_xyz
  1  'x, y, z'
loop_
 _atom_site_type_symbol
 _atom_site_label
 _atom_site_symmetry_multiplicity
 _atom_site_fract_x
 _atom_site_fract_y
 _atom_site_fract_z
 _atom_site_occupancy
  Li  Li0  1  0.96683401  0.95709860  0.21000549  1
  Li  Li1  1  0.55571467  0.37819567  0.31803864  1
  Li  Li2  1  0.50506455  0.29396164  0.73840696  1
  Li  Li3  1  0.89425337  0.11577021  0.02969148  1
  O  O4  1  0.01186749  0.40262738  0.00593046  1
  O  O5  1  0.02110906  0.98389369  0.01380723  1
  P  P6  1  0.96183437  0.65029609  0.70389223  1
  Fe  Fe7  1  0.88895899  0.85058427  0.97248155  1
  P  P8  1  0.73552769  0.96835208  0.03925012  1
  P  P9  1  0.02665442  0.08327179  0.09440085  1
  O  O10  1  0.01106978  0.38729191  0.55500466  1
  Fe  Fe11  1  0.98339427  0.53743762  0.00671686  1
  O  O12  1  0.33834034  0.99480140  0.96874738  1
  O  O13  1  0.33751318  0.06460399  0.67737925  1
  P  P14  1  0.60871470  0.98949105  0.44767553  1
  O  O15  1  0.97124761  0.45378974  0.23427944  1
  O  O16  1  0.02994429  0.06475950  0.65903389  1
  Mn  Mn17  1  0.41815490  0.99116784  0.02265183  1
  P  P18  1  0.01989021  0.98772097  0.32082850  1
  O  O19  1  0.03327903  0.44111371  0.34326893  1
