# generated using pymatgen
data_Li4Ni3P4O9
_symmetry_space_group_name_H-M   'P 1'
_cell_length_a   6.49983619
_cell_length_b   5.90342385
_cell_length_c   7.69112969
_cell_angle_alpha   64.22543977
_cell_angle_beta   69.65842511
_cell_angle_gamma   88.54427070
_symmetry_Int_Tables_number   1
_chemical_formula_structural   Li4Ni3P4O9
_chemical_formula_sum   'Li4 Ni3 P4 O9'
_cell_volume   246.40532834
_cell_formula_units_Z   1
loop_
 _symmetry_equiv_pos_site_id
 _symmetry_equiv_pos_as_xyz
  1  'x, y, z'
loop_
 _atom_site_type_symbol
 _atom_site_label
 _atom_site_symmetry_multiplicity
 _atom_site_fract_x
 _atom_site_fract_y
 _atom_site_fract_z
 _atom_site_occupancy
  Li  Li0  1  0.95759964  0.92673063  0.38342005  1
  Li  Li1  1  0.37049371  0.50412768  0.36613673  1
  Li  Li2  1  0.60126418  0.42283344  0.73653525  1
  Li  Li3  1  0.80887198  0.11423133  0.04222978  1
  P  P4  1  0.01558831  0.32006931  0.01516916  1
  Ni  Ni5  1  0.03050198  0.97045910  0.02082227  1
  O  O6  1  0.95263207  0.49585003  0.67653805  1
  Ni  Ni7  1  0.86604792  0.75499886  0.96950299  1
  Ni  Ni8  1  0.55729425  0.95918918  0.04330751  1
  O  O9  1  0.02955762  0.09141959  0.18730244  1
  P  P10  1  0.01467480  0.55068451  0.59494877  1
  O  O11  1  0.97758234  0.39698616  0.01664076  1
  O  O12  1  0.23829708  0.98338085  0.96462142  1
  O  O13  1  0.28708637  0.07017981  0.49722242  1
  O  O14  1  0.55333006  0.97778541  0.56265545  1
  P  P15  1  0.96403199  0.54035121  0.41144443  1
  O  O16  1  0.04761626  0.07003075  0.74865425  1
  O  O17  1  0.37752631  0.98112530  0.03943241  1
  O  O18  1  0.02472591  0.97907716  0.41680521  1
  P  P19  1  0.04214153  0.51779717  0.23614945  1
