# generated using pymatgen
data_Li4FeHg(PO5)2
_symmetry_space_group_name_H-M   'P 1'
_cell_length_a   4.20114382
_cell_length_b   6.48251778
_cell_length_c   5.76490653
_cell_angle_alpha   53.12764940
_cell_angle_beta   77.81391478
_cell_angle_gamma   78.60212308
_symmetry_Int_Tables_number   1
_chemical_formula_structural   Li4FeHg(PO5)2
_chemical_formula_sum   'Li4 Fe1 Hg1 P2 O10'
_cell_volume   122.26046856
_cell_formula_units_Z   1
loop_
 _symmetry_equiv_pos_site_id
 _symmetry_equiv_pos_as_xyz
  1  'x, y, z'
loop_
 _atom_site_type_symbol
 _atom_site_label
 _atom_site_symmetry_multiplicity
 _atom_site_fract_x
 _atom_site_fract_y
 _atom_site_fract_z
 _atom_site_occupancy
  Li  Li0  1  0.95214039  0.91618842  0.22583809  1
  Li  Li1  1  0.43507031  0.38938507  0.36377454  1
  Li  Li2  1  0.62496680  0.40066749  0.72484845  1
  Li  Li3  1  0.82515949  0.13157371  0.04483605  1
  P  P4  1  0.94718432  0.62978476  0.62943834  1
  P  P5  1  0.85795951  0.74664718  0.96732253  1
  Hg  Hg6  1  0.64005286  0.95309001  0.05896054  1
  O  O7  1  0.04111612  0.09855214  0.15525746  1
  Fe  Fe8  1  0.01730664  0.48616678  0.53822410  1
  O  O9  1  0.97467297  0.52762377  0.02044047  1
  O  O10  1  0.29096407  0.97580719  0.96189004  1
  O  O11  1  0.34115884  0.07412067  0.52418703  1
  O  O12  1  0.54942226  0.96972919  0.59822637  1
  O  O13  1  0.95913923  0.49950343  0.33542064  1
  O  O14  1  0.04969063  0.07410169  0.71881247  1
  O  O15  1  0.39577141  0.97513211  0.04535624  1
  O  O16  1  0.02953165  0.96811450  0.32169276  1
  O  O17  1  0.04496022  0.53718483  0.23208690  1
