# generated using pymatgen
data_Li3FeP5O9
_symmetry_space_group_name_H-M   'P 1'
_cell_length_a   5.21800635
_cell_length_b   7.22100713
_cell_length_c   5.74168142
_cell_angle_alpha   64.82164148
_cell_angle_beta   74.48942697
_cell_angle_gamma   79.63801848
_symmetry_Int_Tables_number   1
_chemical_formula_structural   Li3FeP5O9
_chemical_formula_sum   'Li3 Fe1 P5 O9'
_cell_volume   188.11408704
_cell_formula_units_Z   1
loop_
 _symmetry_equiv_pos_site_id
 _symmetry_equiv_pos_as_xyz
  1  'x, y, z'
loop_
 _atom_site_type_symbol
 _atom_site_label
 _atom_site_symmetry_multiplicity
 _atom_site_fract_x
 _atom_site_fract_y
 _atom_site_fract_z
 _atom_site_occupancy
  Li  Li0  1  0.94856155  0.85241556  0.29324362  1
  Fe  Fe1  1  0.42274579  0.45062786  0.52170944  1
  Li  Li2  1  0.61288643  0.55708927  0.71038377  1
  Li  Li3  1  0.73258710  0.14402570  0.06034522  1
  O  O4  1  0.93934214  0.45639896  0.55599171  1
  P  P5  1  0.85440993  0.60345715  0.96614158  1
  O  O6  1  0.51546943  0.94632769  0.07356092  1
  O  O7  1  0.04226789  0.10047024  0.27926311  1
  O  O8  1  0.01963246  0.66883075  0.49792200  1
  P  P9  1  0.97186375  0.52507043  0.02660928  1
  O  O10  1  0.35311309  0.97383308  0.95929521  1
  P  P11  1  0.42655599  0.07987916  0.47004196  1
  O  O12  1  0.44225484  0.96447647  0.59346330  1
  O  O13  1  0.95575666  0.65905780  0.36644769  1
  P  P14  1  0.05998790  0.07571534  0.61996323  1
  O  O15  1  0.31502604  0.96922547  0.05787581  1
  O  O16  1  0.03385575  0.96979308  0.41778257  1
  P  P17  1  0.05153235  0.65101922  0.26142278  1
