# generated using pymatgen
data_Li3EuMnFeCoP4O7
_symmetry_space_group_name_H-M   'P 1'
_cell_length_a   4.22516936
_cell_length_b   6.01081713
_cell_length_c   3.14978490
_cell_angle_alpha   50.32070615
_cell_angle_beta   92.64520620
_cell_angle_gamma   81.04169564
_symmetry_Int_Tables_number   1
_chemical_formula_structural   Li3EuMnFeCoP4O7
_chemical_formula_sum   'Li3 Eu1 Mn1 Fe1 Co1 P4 O7'
_cell_volume   59.68964971
_cell_formula_units_Z   1
loop_
 _symmetry_equiv_pos_site_id
 _symmetry_equiv_pos_as_xyz
  1  'x, y, z'
loop_
 _atom_site_type_symbol
 _atom_site_label
 _atom_site_symmetry_multiplicity
 _atom_site_fract_x
 _atom_site_fract_y
 _atom_site_fract_z
 _atom_site_occupancy
  Li  Li0  1  0.94644046  0.91439915  0.30899867  1
  Li  Li1  1  0.44177821  0.43449894  0.36557946  1
  Li  Li2  1  0.60437888  0.39319101  0.71413535  1
  Fe  Fe3  1  0.81498080  0.13640140  0.05510460  1
  O  O4  1  0.94039083  0.55030996  0.66305852  1
  P  P5  1  0.84910059  0.75953197  0.96442115  1
  O  O6  1  0.61517918  0.94375247  0.06205570  1
  O  O7  1  0.04238712  0.10539509  0.17163220  1
  O  O8  1  0.02124021  0.50812209  0.56559587  1
  Mn  Mn9  1  0.97004497  0.46162161  0.02655386  1
  P  P10  1  0.29186961  0.97036219  0.95810294  1
  P  P11  1  0.33734494  0.07879974  0.55110973  1
  Eu  Eu12  1  0.55260652  0.96412122  0.55207425  1
  Co  Co13  1  0.95320052  0.50342947  0.35622954  1
  O  O14  1  0.05619535  0.07942341  0.70529246  1
  O  O15  1  0.40054753  0.96747029  0.05048509  1
  P  P16  1  0.03382281  0.96552843  0.38229471  1
  O  O17  1  0.05368431  0.49796784  0.27603063  1
