# generated using pymatgen
data_Li4CeP5O8
_symmetry_space_group_name_H-M   'P 1'
_cell_length_a   4.04436366
_cell_length_b   5.87607995
_cell_length_c   3.94715644
_cell_angle_alpha   83.42481885
_cell_angle_beta   90.67853215
_cell_angle_gamma   43.59426802
_symmetry_Int_Tables_number   1
_chemical_formula_structural   Li4CeP5O8
_chemical_formula_sum   'Li4 Ce1 P5 O8'
_cell_volume   63.63900145
_cell_formula_units_Z   1
loop_
 _symmetry_equiv_pos_site_id
 _symmetry_equiv_pos_as_xyz
  1  'x, y, z'
loop_
 _atom_site_type_symbol
 _atom_site_label
 _atom_site_symmetry_multiplicity
 _atom_site_fract_x
 _atom_site_fract_y
 _atom_site_fract_z
 _atom_site_occupancy
  Li  Li0  1  0.91893131  0.84475476  0.35480985  1
  Li  Li1  1  0.39114219  0.38979864  0.29973260  1
  Li  Li2  1  0.55943501  0.30827457  0.89140308  1
  Li  Li3  1  0.87179768  0.12712687  0.07713359  1
  P  P4  1  0.86304814  0.48643607  0.79318941  1
  O  O5  1  0.88914365  0.74393749  0.90990132  1
  O  O6  1  0.63653022  0.94333857  0.14205848  1
  O  O7  1  0.10426106  0.09599148  0.12585796  1
  P  P8  1  0.08566356  0.51582897  0.72856778  1
  O  O9  1  0.91910732  0.48120826  0.11044184  1
  O  O10  1  0.38736826  0.94083917  0.90077651  1
  Ce  Ce11  1  0.46146280  0.13532193  0.61645615  1
  O  O12  1  0.49813133  0.90088022  0.52010483  1
  O  O13  1  0.91617912  0.30743259  0.55895752  1
  P  P14  1  0.15028648  0.09933059  0.65521795  1
  P  P15  1  0.39821732  0.95326340  0.15977876  1
  P  P16  1  0.11182181  0.93981844  0.32807392  1
  O  O17  1  0.11543159  0.31642660  0.44772220  1
