# generated using pymatgen
data_Li4Co(PO2)5
_symmetry_space_group_name_H-M   'P 1'
_cell_length_a   3.45580869
_cell_length_b   6.99333470
_cell_length_c   3.36702536
_cell_angle_alpha   84.21296866
_cell_angle_beta   65.70013562
_cell_angle_gamma   47.76715189
_symmetry_Int_Tables_number   1
_chemical_formula_structural   Li4Co(PO2)5
_chemical_formula_sum   'Li4 Co1 P5 O10'
_cell_volume   53.01691211
_cell_formula_units_Z   1
loop_
 _symmetry_equiv_pos_site_id
 _symmetry_equiv_pos_as_xyz
  1  'x, y, z'
loop_
 _atom_site_type_symbol
 _atom_site_label
 _atom_site_symmetry_multiplicity
 _atom_site_fract_x
 _atom_site_fract_y
 _atom_site_fract_z
 _atom_site_occupancy
  Li  Li0  1  0.93617475  0.86821640  0.36180848  1
  Li  Li1  1  0.38798031  0.39316058  0.29450038  1
  Li  Li2  1  0.55964732  0.29113960  0.90916568  1
  Li  Li3  1  0.89248198  0.10708988  0.05806193  1
  P  P4  1  0.05245326  0.35897246  0.06419171  1
  Co  Co5  1  0.08656700  0.96079493  0.03918449  1
  O  O6  1  0.88815850  0.47816592  0.81315148  1
  P  P7  1  0.91195887  0.74754870  0.92752522  1
  P  P8  1  0.64558607  0.96126235  0.12809849  1
  P  P9  1  0.08506138  0.08064216  0.10372370  1
  O  O10  1  0.06651425  0.52240741  0.73624337  1
  O  O11  1  0.93753654  0.47535399  0.08740999  1
  O  O12  1  0.38994887  0.95814812  0.91821235  1
  O  O13  1  0.46751648  0.11669877  0.60886341  1
  O  O14  1  0.50998211  0.92069042  0.51968503  1
  O  O15  1  0.93480641  0.30019167  0.55955267  1
  O  O16  1  0.13055137  0.08292499  0.65837979  1
  O  O17  1  0.39158463  0.97129130  0.13344145  1
  P  P18  1  0.09468401  0.95684510  0.31290525  1
  O  O19  1  0.09558506  0.30482161  0.45095018  1
