# generated using pymatgen
data_Li3MnGa(PO2)5
_symmetry_space_group_name_H-M   'P 1'
_cell_length_a   6.15180098
_cell_length_b   4.22165278
_cell_length_c   4.16091869
_cell_angle_alpha   84.25573187
_cell_angle_beta   95.70953384
_cell_angle_gamma   65.35151338
_symmetry_Int_Tables_number   1
_chemical_formula_structural   Li3MnGa(PO2)5
_chemical_formula_sum   'Li3 Mn1 Ga1 P5 O10'
_cell_volume   96.52377647
_cell_formula_units_Z   1
loop_
 _symmetry_equiv_pos_site_id
 _symmetry_equiv_pos_as_xyz
  1  'x, y, z'
loop_
 _atom_site_type_symbol
 _atom_site_label
 _atom_site_symmetry_multiplicity
 _atom_site_fract_x
 _atom_site_fract_y
 _atom_site_fract_z
 _atom_site_occupancy
  Li  Li0  1  0.93577778  0.85596156  0.33887625  1
  Li  Li1  1  0.40152016  0.39064163  0.30261385  1
  Li  Li2  1  0.56135911  0.31073192  0.90654331  1
  P  P3  1  0.88657993  0.10800701  0.05882701  1
  P  P4  1  0.05262078  0.36495852  0.06568018  1
  O  O5  1  0.09080620  0.95452434  0.03906763  1
  O  O6  1  0.88714689  0.48400098  0.80891889  1
  Mn  Mn7  1  0.91199815  0.74370408  0.92455161  1
  O  O8  1  0.63363510  0.96048641  0.12810154  1
  P  P9  1  0.08777063  0.08225733  0.10920341  1
  P  P10  1  0.06793647  0.53697294  0.73594785  1
  O  O11  1  0.93508887  0.48641568  0.09147230  1
  O  O12  1  0.38877362  0.95757502  0.91476357  1
  O  O13  1  0.45766401  0.12203375  0.60809374  1
  O  O14  1  0.50186664  0.91832805  0.52628767  1
  O  O15  1  0.93161601  0.30164811  0.56179923  1
  O  O16  1  0.13580917  0.08378295  0.65536070  1
  P  P17  1  0.39331758  0.96886349  0.14082320  1
  Ga  Ga18  1  0.09543493  0.95695055  0.32242393  1
  O  O19  1  0.09882410  0.31569898  0.44720513  1
