# generated using pymatgen
data_Li3SmYBeMoP4O7
_symmetry_space_group_name_H-M   'P 1'
_cell_length_a   4.83465354
_cell_length_b   5.08993495
_cell_length_c   4.30420355
_cell_angle_alpha   139.53664671
_cell_angle_beta   69.43434438
_cell_angle_gamma   113.11451763
_symmetry_Int_Tables_number   1
_chemical_formula_structural   Li3SmYBeMoP4O7
_chemical_formula_sum   'Li3 Sm1 Y1 Be1 Mo1 P4 O7'
_cell_volume   62.97274370
_cell_formula_units_Z   1
loop_
 _symmetry_equiv_pos_site_id
 _symmetry_equiv_pos_as_xyz
  1  'x, y, z'
loop_
 _atom_site_type_symbol
 _atom_site_label
 _atom_site_symmetry_multiplicity
 _atom_site_fract_x
 _atom_site_fract_y
 _atom_site_fract_z
 _atom_site_occupancy
  Li  Li0  1  0.91717100  0.82437217  0.33805785  1
  Li  Li1  1  0.40613028  0.39927915  0.34199044  1
  Li  Li2  1  0.57242918  0.32984862  0.88922197  1
  Mo  Mo3  1  0.86547381  0.12980255  0.07880542  1
  O  O4  1  0.85786241  0.47496551  0.77954054  1
  O  O5  1  0.88808483  0.71562344  0.90876979  1
  O  O6  1  0.61700386  0.94321662  0.16309446  1
  P  P7  1  0.10938033  0.09619318  0.13303158  1
  O  O8  1  0.08524430  0.55461562  0.69561356  1
  P  P9  1  0.92026514  0.51266104  0.11310002  1
  P  P10  1  0.41874892  0.93736869  0.89918768  1
  P  P11  1  0.50616640  0.14177065  0.59016794  1
  O  O12  1  0.47070661  0.89139360  0.52596855  1
  O  O13  1  0.91578811  0.33202276  0.54037476  1
  Sm  Sm14  1  0.15909463  0.09702069  0.62676251  1
  Y  Y15  1  0.39878780  0.95195568  0.16846821  1
  Be  Be16  1  0.11893368  0.93815631  0.32092202  1
  O  O17  1  0.11984651  0.34483215  0.43615791  1
