# generated using pymatgen
data_Li4MnCrFe(P2O5)2
_symmetry_space_group_name_H-M   'P 1'
_cell_length_a   2.24468439
_cell_length_b   6.33486224
_cell_length_c   7.76207724
_cell_angle_alpha   117.60021542
_cell_angle_beta   103.33397620
_cell_angle_gamma   126.27960092
_symmetry_Int_Tables_number   1
_chemical_formula_structural   Li4MnCrFe(P2O5)2
_chemical_formula_sum   'Li4 Mn1 Cr1 Fe1 P4 O10'
_cell_volume   55.79930949
_cell_formula_units_Z   1
loop_
 _symmetry_equiv_pos_site_id
 _symmetry_equiv_pos_as_xyz
  1  'x, y, z'
loop_
 _atom_site_type_symbol
 _atom_site_label
 _atom_site_symmetry_multiplicity
 _atom_site_fract_x
 _atom_site_fract_y
 _atom_site_fract_z
 _atom_site_occupancy
  Li  Li0  1  0.93714112  0.86609423  0.34650806  1
  Li  Li1  1  0.36654431  0.39572358  0.30406803  1
  Li  Li2  1  0.57335621  0.30943310  0.90997010  1
  Cr  Cr3  1  0.89523333  0.10517116  0.05367711  1
  Li  Li4  1  0.71411705  0.97300667  0.91594738  1
  Mn  Mn5  1  0.04947085  0.37041539  0.06431507  1
  O  O6  1  0.08771558  0.96039420  0.03648583  1
  O  O7  1  0.88737905  0.47205287  0.80799246  1
  O  O8  1  0.91475213  0.74930751  0.92890888  1
  O  O9  1  0.63591146  0.96334845  0.12354063  1
  O  O10  1  0.08309860  0.07800393  0.10011796  1
  O  O11  1  0.06349064  0.54723006  0.74382061  1
  P  P12  1  0.93986875  0.47418839  0.08684935  1
  O  O13  1  0.40585905  0.96378320  0.91972363  1
  O  O14  1  0.45304719  0.11543198  0.60951895  1
  O  O15  1  0.49346095  0.91987801  0.53579962  1
  P  P16  1  0.93592316  0.30355006  0.56850338  1
  P  P17  1  0.13053802  0.08165257  0.66365904  1
  Fe  Fe18  1  0.36685720  0.97186130  0.14348340  1
  P  P19  1  0.09283025  0.96268415  0.32072434  1
  O  O20  1  0.09555603  0.31260979  0.45572630  1
