# generated using pymatgen
data_Li2MnFe2P5O8
_symmetry_space_group_name_H-M   'P 1'
_cell_length_a   5.62362214
_cell_length_b   4.19297202
_cell_length_c   2.86862016
_cell_angle_alpha   119.56133244
_cell_angle_beta   49.89866862
_cell_angle_gamma   91.17526298
_symmetry_Int_Tables_number   1
_chemical_formula_structural   Li2MnFe2P5O8
_chemical_formula_sum   'Li2 Mn1 Fe2 P5 O8'
_cell_volume   40.26203084
_cell_formula_units_Z   1
loop_
 _symmetry_equiv_pos_site_id
 _symmetry_equiv_pos_as_xyz
  1  'x, y, z'
loop_
 _atom_site_type_symbol
 _atom_site_label
 _atom_site_symmetry_multiplicity
 _atom_site_fract_x
 _atom_site_fract_y
 _atom_site_fract_z
 _atom_site_occupancy
  Li  Li0  1  0.91806543  0.84388393  0.36161780  1
  Li  Li1  1  0.41133156  0.39157784  0.31679600  1
  Fe  Fe2  1  0.55856055  0.31230864  0.88981563  1
  Fe  Fe3  1  0.86574090  0.12960061  0.07971343  1
  P  P4  1  0.86434823  0.46808106  0.79085791  1
  P  P5  1  0.88889301  0.73373288  0.90827972  1
  O  O6  1  0.62697089  0.94095725  0.15412576  1
  P  P7  1  0.10578915  0.09731548  0.13006760  1
  P  P8  1  0.08734229  0.54103374  0.71928531  1
  O  O9  1  0.91764539  0.48818088  0.11307885  1
  O  O10  1  0.40729287  0.93927091  0.89916873  1
  O  O11  1  0.48059025  0.14056090  0.61714083  1
  O  O12  1  0.50570303  0.89791429  0.51960486  1
  P  P13  1  0.91569191  0.31418908  0.55089188  1
  O  O14  1  0.15489106  0.10054115  0.63243103  1
  O  O15  1  0.39688066  0.95180738  0.16269909  1
  Mn  Mn16  1  0.11719573  0.93843830  0.33594793  1
  O  O17  1  0.11843889  0.32155260  0.46379313  1
