# generated using pymatgen
data_Li4VCuP5O7
_symmetry_space_group_name_H-M   'P 1'
_cell_length_a   5.63025504
_cell_length_b   2.51008983
_cell_length_c   2.18926895
_cell_angle_alpha   95.47217625
_cell_angle_beta   122.53596124
_cell_angle_gamma   51.19078016
_symmetry_Int_Tables_number   1
_chemical_formula_structural   Li4VCuP5O7
_chemical_formula_sum   'Li4 V1 Cu1 P5 O7'
_cell_volume   18.89971041
_cell_formula_units_Z   1
loop_
 _symmetry_equiv_pos_site_id
 _symmetry_equiv_pos_as_xyz
  1  'x, y, z'
loop_
 _atom_site_type_symbol
 _atom_site_label
 _atom_site_symmetry_multiplicity
 _atom_site_fract_x
 _atom_site_fract_y
 _atom_site_fract_z
 _atom_site_occupancy
  Li  Li0  1  0.92516756  0.83352280  0.32846469  1
  Li  Li1  1  0.39050561  0.38034731  0.33695427  1
  Cu  Cu2  1  0.57563835  0.32845032  0.89707369  1
  Li  Li3  1  0.87728083  0.11966977  0.06961459  1
  P  P4  1  0.86800897  0.47591394  0.78596628  1
  O  O5  1  0.89767766  0.71782357  0.91529149  1
  O  O6  1  0.60708100  0.95003784  0.14765401  1
  P  P7  1  0.09968805  0.08835710  0.12439561  1
  V  V8  1  0.07826335  0.56817752  0.71838927  1
  Li  Li9  1  0.92472613  0.50159776  0.10666563  1
  O  O10  1  0.40554813  0.94851393  0.90556347  1
  O  O11  1  0.48001972  0.13377848  0.58964282  1
  P  P12  1  0.46845543  0.90702552  0.55166578  1
  O  O13  1  0.92308968  0.33349079  0.56270206  1
  P  P14  1  0.15355724  0.09226304  0.64819932  1
  O  O15  1  0.37596926  0.95924348  0.16242613  1
  P  P16  1  0.11056591  0.94603461  0.32445988  1
  O  O17  1  0.11044719  0.33728826  0.45084614  1
