# generated using pymatgen
data_Li4P7O9
_symmetry_space_group_name_H-M   'P 1'
_cell_length_a   4.36147615
_cell_length_b   4.46531233
_cell_length_c   2.70637802
_cell_angle_alpha   54.01094973
_cell_angle_beta   81.47771843
_cell_angle_gamma   78.50524104
_symmetry_Int_Tables_number   1
_chemical_formula_structural   Li4P7O9
_chemical_formula_sum   'Li4 P7 O9'
_cell_volume   41.75979585
_cell_formula_units_Z   1
loop_
 _symmetry_equiv_pos_site_id
 _symmetry_equiv_pos_as_xyz
  1  'x, y, z'
loop_
 _atom_site_type_symbol
 _atom_site_label
 _atom_site_symmetry_multiplicity
 _atom_site_fract_x
 _atom_site_fract_y
 _atom_site_fract_z
 _atom_site_occupancy
  Li  Li0  1  0.93046111  0.84741992  0.33846375  1
  Li  Li1  1  0.41484985  0.38334772  0.32599375  1
  Li  Li2  1  0.56399399  0.29860589  0.90188181  1
  Li  Li3  1  0.88568753  0.11427011  0.06454536  1
  P  P4  1  0.05588109  0.38549110  0.06918404  1
  P  P5  1  0.09551374  0.95279235  0.04344856  1
  P  P6  1  0.87915182  0.47968447  0.79912144  1
  O  O7  1  0.90732598  0.74251974  0.92003876  1
  P  P8  1  0.64568037  0.95178246  0.14201069  1
  O  O9  1  0.09253284  0.08377659  0.11287723  1
  O  O10  1  0.07409573  0.54201466  0.72426295  1
  O  O11  1  0.93026638  0.49656639  0.09822271  1
  P  P12  1  0.43896940  0.95488495  0.90877926  1
  P  P13  1  0.47526699  0.12729073  0.62332195  1
  O  O14  1  0.48851347  0.91245502  0.50559449  1
  O  O15  1  0.92801744  0.31661633  0.54136908  1
  O  O16  1  0.13952135  0.08776045  0.63456535  1
  O  O17  1  0.39499792  0.96444458  0.15120037  1
  P  P18  1  0.10222182  0.95186943  0.32543415  1
  O  O19  1  0.10499941  0.32361871  0.46170455  1
