# generated using pymatgen
data_Li2Mn(PO2)2
_symmetry_space_group_name_H-M   'P 1'
_cell_length_a   2.97354076
_cell_length_b   4.16770273
_cell_length_c   3.04450991
_cell_angle_alpha   111.03957372
_cell_angle_beta   97.34911895
_cell_angle_gamma   99.33447983
_symmetry_Int_Tables_number   1
_chemical_formula_structural   Li2Mn(PO2)2
_chemical_formula_sum   'Li4 Mn2 P4 O8'
_cell_volume   34.03126624
_cell_formula_units_Z   2
loop_
 _symmetry_equiv_pos_site_id
 _symmetry_equiv_pos_as_xyz
  1  'x, y, z'
loop_
 _atom_site_type_symbol
 _atom_site_label
 _atom_site_symmetry_multiplicity
 _atom_site_fract_x
 _atom_site_fract_y
 _atom_site_fract_z
 _atom_site_occupancy
  Li  Li0  1  0.91862875  0.81799430  0.35087672  1
  Li  Li1  1  0.37380007  0.40367281  0.35946962  1
  Li  Li2  1  0.57375336  0.35307208  0.89233047  1
  Li  Li3  1  0.86641371  0.12557714  0.07363079  1
  P  P4  1  0.86018854  0.45341641  0.77051049  1
  O  O5  1  0.89218491  0.71614110  0.91190881  1
  O  O6  1  0.60256082  0.94496161  0.15819851  1
  Mn  Mn7  1  0.10631537  0.09334852  0.13344985  1
  O  O8  1  0.08244460  0.58486491  0.69692135  1
  O  O9  1  0.92209250  0.50142115  0.11558055  1
  O  O10  1  0.41989586  0.94154185  0.90134901  1
  P  P11  1  0.48763567  0.14248735  0.57831103  1
  P  P12  1  0.45950553  0.89309353  0.54430079  1
  Mn  Mn13  1  0.91726941  0.34840915  0.57480866  1
  O  O14  1  0.16217761  0.09594497  0.63452733  1
  O  O15  1  0.37553412  0.95491767  0.17807980  1
  P  P16  1  0.12036812  0.94198501  0.33198714  1
  O  O17  1  0.11761197  0.35162398  0.44501007  1
