# generated using pymatgen
data_Li4FeP4O11
_symmetry_space_group_name_H-M   'P 1'
_cell_length_a   6.29194133
_cell_length_b   6.16846488
_cell_length_c   7.26863977
_cell_angle_alpha   83.96724504
_cell_angle_beta   53.38497295
_cell_angle_gamma   77.47877782
_symmetry_Int_Tables_number   1
_chemical_formula_structural   Li4FeP4O11
_chemical_formula_sum   'Li4 Fe1 P4 O11'
_cell_volume   220.94568245
_cell_formula_units_Z   1
loop_
 _symmetry_equiv_pos_site_id
 _symmetry_equiv_pos_as_xyz
  1  'x, y, z'
loop_
 _atom_site_type_symbol
 _atom_site_label
 _atom_site_symmetry_multiplicity
 _atom_site_fract_x
 _atom_site_fract_y
 _atom_site_fract_z
 _atom_site_occupancy
  Li  Li0  1  0.93684012  0.86976343  0.36057490  1
  Li  Li1  1  0.37512878  0.39527047  0.29092512  1
  Li  Li2  1  0.56996560  0.29775596  0.91036040  1
  Li  Li3  1  0.89135271  0.10596551  0.05687212  1
  O  O4  1  0.05200782  0.34146464  0.06641638  1
  P  P5  1  0.08905572  0.96041304  0.03663919  1
  O  O6  1  0.88799191  0.46930590  0.81614053  1
  P  P7  1  0.91136044  0.74671251  0.92690873  1
  P  P8  1  0.63170266  0.96217740  0.11752688  1
  O  O9  1  0.08276626  0.08077852  0.10333833  1
  P  P10  1  0.06546709  0.52498728  0.74408150  1
  O  O11  1  0.93805462  0.45582524  0.08798899  1
  O  O12  1  0.37436166  0.95921642  0.91903055  1
  O  O13  1  0.45972481  0.11390723  0.60369158  1
  O  O14  1  0.51182395  0.92237723  0.54067391  1
  Fe  Fe15  1  0.93402946  0.29144689  0.58403563  1
  O  O16  1  0.13058783  0.08310536  0.66986388  1
  O  O17  1  0.38409513  0.97091198  0.13745192  1
  O  O18  1  0.09219137  0.95901960  0.31690070  1
  O  O19  1  0.09477013  0.30242619  0.44216612  1
