# generated using pymatgen
data_Li8V(P3O5)2
_symmetry_space_group_name_H-M   'P 1'
_cell_length_a   5.64900736
_cell_length_b   8.66870065
_cell_length_c   5.03847698
_cell_angle_alpha   76.88184620
_cell_angle_beta   90.01185545
_cell_angle_gamma   105.93141273
_symmetry_Int_Tables_number   1
_chemical_formula_structural   Li8V(P3O5)2
_chemical_formula_sum   'Li8 V1 P6 O10'
_cell_volume   230.55543164
_cell_formula_units_Z   1
loop_
 _symmetry_equiv_pos_site_id
 _symmetry_equiv_pos_as_xyz
  1  'x, y, z'
loop_
 _atom_site_type_symbol
 _atom_site_label
 _atom_site_symmetry_multiplicity
 _atom_site_fract_x
 _atom_site_fract_y
 _atom_site_fract_z
 _atom_site_occupancy
  Li  Li0  1  0.95152336  0.87811863  0.32391280  1
  Li  Li1  1  0.40544960  0.38043857  0.28801766  1
  Li  Li2  1  0.55636948  0.27968469  0.92378920  1
  Li  Li3  1  0.91023970  0.09059435  0.04200514  1
  Li  Li4  1  0.94694269  0.95771921  0.65045303  1
  Li  Li5  1  0.74339890  0.98624796  0.93089318  1
  Li  Li6  1  0.95460045  0.08696316  0.89497012  1
  Li  Li7  1  0.95679206  0.97815037  0.03376371  1
  V  V8  1  0.04444935  0.93231535  0.92827839  1
  O  O9  1  0.03961086  0.36413437  0.04539880  1
  P  P10  1  0.06995003  0.97519541  0.02542278  1
  O  O11  1  0.90694344  0.47142226  0.83143902  1
  P  P12  1  0.93128103  0.76605994  0.94118088  1
  O  O13  1  0.65425301  0.97681373  0.10978433  1
  P  P14  1  0.06773327  0.06721515  0.08835544  1
  P  P15  1  0.05101921  0.54350835  0.75783253  1
  O  O16  1  0.95279807  0.46873242  0.06930771  1
  O  O17  1  0.41357973  0.97633481  0.93066585  1
  O  O18  1  0.44780388  0.10438129  0.64188123  1
  P  P19  1  0.50625169  0.94254661  0.50670666  1
  O  O20  1  0.94916201  0.28833562  0.55581748  1
  O  O21  1  0.11207056  0.06972264  0.65987533  1
  P  P22  1  0.38511127  0.98371261  0.11942430  1
  O  O23  1  0.07554299  0.97453135  0.30732369  1
  O  O24  1  0.07805493  0.29397649  0.45933953  1
