# generated using pymatgen
data_Li2P2O5
_symmetry_space_group_name_H-M   'P 1'
_cell_length_a   3.09415736
_cell_length_b   5.58900724
_cell_length_c   2.37728360
_cell_angle_alpha   71.36507740
_cell_angle_beta   68.10245609
_cell_angle_gamma   108.52424604
_symmetry_Int_Tables_number   1
_chemical_formula_structural   Li2P2O5
_chemical_formula_sum   'Li4 P4 O10'
_cell_volume   31.36708638
_cell_formula_units_Z   2
loop_
 _symmetry_equiv_pos_site_id
 _symmetry_equiv_pos_as_xyz
  1  'x, y, z'
loop_
 _atom_site_type_symbol
 _atom_site_label
 _atom_site_symmetry_multiplicity
 _atom_site_fract_x
 _atom_site_fract_y
 _atom_site_fract_z
 _atom_site_occupancy
  Li  Li0  1  0.92277879  0.83661491  0.33548433  1
  Li  Li1  1  0.40061128  0.39622796  0.33024141  1
  Li  Li2  1  0.56774610  0.33447826  0.89579612  1
  Li  Li3  1  0.87090385  0.12138274  0.07175884  1
  P  P4  1  0.86734080  0.47663763  0.78964728  1
  O  O5  1  0.89621669  0.72641212  0.91303742  1
  O  O6  1  0.62183267  0.94844556  0.14753664  1
  O  O7  1  0.10035528  0.09292863  0.12580702  1
  O  O8  1  0.08081837  0.55811799  0.72268075  1
  O  O9  1  0.92270380  0.49247855  0.10695020  1
  P  P10  1  0.40877709  0.94605410  0.90237844  1
  P  P11  1  0.47147858  0.13756080  0.60079342  1
  O  O12  1  0.48793089  0.90200883  0.54456747  1
  O  O13  1  0.91992646  0.32123345  0.56759661  1
  O  O14  1  0.15386432  0.09423752  0.64256251  1
  O  O15  1  0.38833547  0.95598811  0.16176945  1
  P  P16  1  0.11301375  0.94408906  0.33278999  1
  O  O17  1  0.11213081  0.33280608  0.44202793  1
