# generated using pymatgen
data_KLi4Co(P2O5)2
_symmetry_space_group_name_H-M   'P 1'
_cell_length_a   7.69451676
_cell_length_b   5.41474190
_cell_length_c   3.03914890
_cell_angle_alpha   63.25508630
_cell_angle_beta   112.60430397
_cell_angle_gamma   102.39741874
_symmetry_Int_Tables_number   1
_chemical_formula_structural   KLi4Co(P2O5)2
_chemical_formula_sum   'K1 Li4 Co1 P4 O10'
_cell_volume   104.25621548
_cell_formula_units_Z   1
loop_
 _symmetry_equiv_pos_site_id
 _symmetry_equiv_pos_as_xyz
  1  'x, y, z'
loop_
 _atom_site_type_symbol
 _atom_site_label
 _atom_site_symmetry_multiplicity
 _atom_site_fract_x
 _atom_site_fract_y
 _atom_site_fract_z
 _atom_site_occupancy
  Li  Li0  1  0.93467885  0.85635453  0.33316898  1
  Li  Li1  1  0.38551107  0.37264135  0.31576529  1
  Li  Li2  1  0.56923234  0.31614935  0.90710801  1
  Li  Li3  1  0.89039648  0.10696407  0.05932785  1
  P  P4  1  0.05345961  0.36848891  0.06485033  1
  O  O5  1  0.09134544  0.95699412  0.03956421  1
  O  O6  1  0.88278902  0.48355135  0.80170619  1
  O  O7  1  0.91064322  0.73796183  0.92446798  1
  P  P8  1  0.62146878  0.96041936  0.13055266  1
  Co  Co9  1  0.08895319  0.08115748  0.10841608  1
  O  O10  1  0.06989078  0.56246614  0.74203986  1
  O  O11  1  0.93602741  0.49103120  0.09278782  1
  O  O12  1  0.40043068  0.95838392  0.91517031  1
  O  O13  1  0.46666089  0.12154338  0.60096997  1
  O  O14  1  0.47522148  0.91720152  0.55088270  1
  O  O15  1  0.93311197  0.31737509  0.56850147  1
  K  K16  1  0.13858333  0.08491851  0.65251666  1
  P  P17  1  0.36964867  0.96942425  0.14453904  1
  P  P18  1  0.09902058  0.95578045  0.32655904  1
  O  O19  1  0.09773971  0.31972638  0.44883090  1
