# generated using pymatgen
data_Li2MnFeP5O9
_symmetry_space_group_name_H-M   'P 1'
_cell_length_a   4.58060255
_cell_length_b   4.50104825
_cell_length_c   3.46912448
_cell_angle_alpha   97.59699151
_cell_angle_beta   72.73316056
_cell_angle_gamma   59.20643899
_symmetry_Int_Tables_number   1
_chemical_formula_structural   Li2MnFeP5O9
_chemical_formula_sum   'Li2 Mn1 Fe1 P5 O9'
_cell_volume   55.03922449
_cell_formula_units_Z   1
loop_
 _symmetry_equiv_pos_site_id
 _symmetry_equiv_pos_as_xyz
  1  'x, y, z'
loop_
 _atom_site_type_symbol
 _atom_site_label
 _atom_site_symmetry_multiplicity
 _atom_site_fract_x
 _atom_site_fract_y
 _atom_site_fract_z
 _atom_site_occupancy
  Li  Li0  1  0.92093074  0.84186220  0.33270425  1
  Li  Li1  1  0.39518148  0.39170760  0.31719244  1
  Fe  Fe2  1  0.54810834  0.31378153  0.89483804  1
  Mn  Mn3  1  0.87479162  0.12456965  0.07160027  1
  O  O4  1  0.86660093  0.48634270  0.78530663  1
  O  O5  1  0.89341259  0.74003798  0.91324884  1
  O  O6  1  0.62924320  0.94562131  0.15207641  1
  P  P7  1  0.10359474  0.09228548  0.12722263  1
  O  O8  1  0.08111532  0.54111713  0.72034413  1
  P  P9  1  0.92285883  0.50298136  0.10782642  1
  O  O10  1  0.40493625  0.94372171  0.90292448  1
  P  P11  1  0.46371782  0.13468002  0.59616202  1
  P  P12  1  0.49441329  0.90295619  0.52084482  1
  O  O13  1  0.92036730  0.32209620  0.55487490  1
  P  P14  1  0.15289238  0.09603443  0.64819437  1
  O  O15  1  0.38095409  0.95721996  0.16394627  1
  O  O16  1  0.11090758  0.94153714  0.31860569  1
  O  O17  1  0.11287847  0.32255474  0.46360254  1
