# generated using pymatgen
data_Li2MnAsP3SeO10
_symmetry_space_group_name_H-M   'P 1'
_cell_length_a   4.55241669
_cell_length_b   2.48785767
_cell_length_c   3.29965830
_cell_angle_alpha   50.36027383
_cell_angle_beta   44.41423243
_cell_angle_gamma   57.48479712
_symmetry_Int_Tables_number   1
_chemical_formula_structural   Li2MnAsP3SeO10
_chemical_formula_sum   'Li2 Mn1 As1 P3 Se1 O10'
_cell_volume   19.90680506
_cell_formula_units_Z   1
loop_
 _symmetry_equiv_pos_site_id
 _symmetry_equiv_pos_as_xyz
  1  'x, y, z'
loop_
 _atom_site_type_symbol
 _atom_site_label
 _atom_site_symmetry_multiplicity
 _atom_site_fract_x
 _atom_site_fract_y
 _atom_site_fract_z
 _atom_site_occupancy
  Li  Li0  1  0.91441149  0.83324111  0.36714774  1
  Se  Se1  1  0.38609853  0.40801933  0.33181483  1
  Li  Li2  1  0.55778092  0.32357851  0.88878620  1
  As  As3  1  0.86744070  0.13172734  0.08197431  1
  O  O4  1  0.85728860  0.46486622  0.78146195  1
  P  P5  1  0.88762861  0.72930241  0.90709990  1
  Mn  Mn6  1  0.61783558  0.94016576  0.15622869  1
  P  P7  1  0.10657342  0.09900323  0.13482881  1
  P  P8  1  0.08962517  0.55436826  0.71392000  1
  O  O9  1  0.91595155  0.49004593  0.11598952  1
  O  O10  1  0.41379645  0.93705606  0.89567101  1
  O  O11  1  0.47792637  0.14181302  0.59762526  1
  O  O12  1  0.49084985  0.89459360  0.52455056  1
  O  O13  1  0.91405946  0.33353558  0.55849528  1
  O  O14  1  0.16017921  0.10349090  0.63252109  1
  O  O15  1  0.38316798  0.95051402  0.17354420  1
  O  O16  1  0.11966987  0.93889326  0.34265500  1
  O  O17  1  0.12219429  0.33158603  0.45833632  1
