# generated using pymatgen
data_Li4ZnP3O11
_symmetry_space_group_name_H-M   'P 1'
_cell_length_a   3.79966447
_cell_length_b   4.85627503
_cell_length_c   2.84644932
_cell_angle_alpha   108.54970324
_cell_angle_beta   63.82360797
_cell_angle_gamma   74.18598523
_symmetry_Int_Tables_number   1
_chemical_formula_structural   Li4ZnP3O11
_chemical_formula_sum   'Li4 Zn1 P3 O11'
_cell_volume   39.07397968
_cell_formula_units_Z   1
loop_
 _symmetry_equiv_pos_site_id
 _symmetry_equiv_pos_as_xyz
  1  'x, y, z'
loop_
 _atom_site_type_symbol
 _atom_site_label
 _atom_site_symmetry_multiplicity
 _atom_site_fract_x
 _atom_site_fract_y
 _atom_site_fract_z
 _atom_site_occupancy
  Li  Li0  1  0.92564428  0.84866232  0.37609541  1
  Li  Li1  1  0.38931286  0.39864111  0.31533727  1
  Li  Li2  1  0.56649309  0.31717759  0.89796251  1
  Li  Li3  1  0.87632513  0.12004022  0.07024717  1
  Zn  Zn4  1  0.10153253  0.94883990  0.04938587  1
  O  O5  1  0.87247479  0.46182850  0.79979783  1
  P  P6  1  0.89998275  0.73246711  0.91772866  1
  O  O7  1  0.62611926  0.95089191  0.14006624  1
  O  O8  1  0.09545006  0.08952641  0.12400426  1
  O  O9  1  0.07742336  0.55680329  0.73071700  1
  O  O10  1  0.92601717  0.46144754  0.10318428  1
  O  O11  1  0.39026120  0.94845104  0.90665793  1
  P  P12  1  0.47066495  0.13140269  0.60996556  1
  O  O13  1  0.49002740  0.90942580  0.52304202  1
  P  P14  1  0.92343777  0.31905177  0.57887888  1
  O  O15  1  0.14713724  0.09288947  0.65480012  1
  O  O16  1  0.38933659  0.96049422  0.15454699  1
  O  O17  1  0.10859421  0.94733560  0.33421198  1
  O  O18  1  0.11077394  0.31805986  0.45922145  1
