# generated using pymatgen
data_Li3Zr(PO2)5
_symmetry_space_group_name_H-M   'P 1'
_cell_length_a   3.58017664
_cell_length_b   3.45800792
_cell_length_c   5.64218407
_cell_angle_alpha   81.46022765
_cell_angle_beta   91.14954329
_cell_angle_gamma   51.12936806
_symmetry_Int_Tables_number   1
_chemical_formula_structural   Li3Zr(PO2)5
_chemical_formula_sum   'Li3 Zr1 P5 O10'
_cell_volume   53.19621011
_cell_formula_units_Z   1
loop_
 _symmetry_equiv_pos_site_id
 _symmetry_equiv_pos_as_xyz
  1  'x, y, z'
loop_
 _atom_site_type_symbol
 _atom_site_label
 _atom_site_symmetry_multiplicity
 _atom_site_fract_x
 _atom_site_fract_y
 _atom_site_fract_z
 _atom_site_occupancy
  Li  Li0  1  0.92684597  0.85266960  0.37844396  1
  Li  Li1  1  0.38990662  0.40877381  0.30120003  1
  Zr  Zr2  1  0.57246232  0.30395278  0.89859873  1
  Li  Li3  1  0.87868774  0.11709432  0.06794494  1
  O  O4  1  0.10239147  0.94891399  0.04726873  1
  P  P5  1  0.87168741  0.47191539  0.80035913  1
  P  P6  1  0.90006685  0.74589014  0.91507804  1
  P  P7  1  0.63256639  0.95148623  0.13371399  1
  O  O8  1  0.09347802  0.08866971  0.12220996  1
  O  O9  1  0.07788493  0.53546691  0.73199058  1
  O  O10  1  0.92593116  0.46321827  0.10105439  1
  O  O11  1  0.38480723  0.94878340  0.90791386  1
  P  P12  1  0.46724403  0.12791003  0.61055440  1
  O  O13  1  0.50478065  0.90858853  0.50425023  1
  O  O14  1  0.92379951  0.31152603  0.57242095  1
  P  P15  1  0.14390561  0.09243254  0.65509492  1
  O  O16  1  0.40279585  0.96076024  0.15358616  1
  O  O17  1  0.10221788  0.94811571  0.33077356  1
  O  O18  1  0.10909950  0.31249100  0.44772744  1
