# generated using pymatgen
data_Li6MnFeP3RuO12
_symmetry_space_group_name_H-M   'P 1'
_cell_length_a   5.00502033
_cell_length_b   5.60792220
_cell_length_c   4.98339344
_cell_angle_alpha   80.96582345
_cell_angle_beta   69.54094666
_cell_angle_gamma   64.67175301
_symmetry_Int_Tables_number   1
_chemical_formula_structural   Li6MnFeP3RuO12
_chemical_formula_sum   'Li6 Mn1 Fe1 P3 Ru1 O12'
_cell_volume   118.44762855
_cell_formula_units_Z   1
loop_
 _symmetry_equiv_pos_site_id
 _symmetry_equiv_pos_as_xyz
  1  'x, y, z'
loop_
 _atom_site_type_symbol
 _atom_site_label
 _atom_site_symmetry_multiplicity
 _atom_site_fract_x
 _atom_site_fract_y
 _atom_site_fract_z
 _atom_site_occupancy
  Li  Li0  1  0.95197082  0.89034420  0.29950461  1
  Li  Li1  1  0.41667423  0.35839280  0.26858786  1
  Li  Li2  1  0.56340402  0.26169580  0.92366290  1
  Li  Li3  1  0.91486895  0.09114088  0.03851775  1
  Fe  Fe4  1  0.94568360  0.96141624  0.68297100  1
  Li  Li5  1  0.75094110  0.98657995  0.92971480  1
  P  P6  1  0.95482194  0.97800124  0.03340711  1
  Li  Li7  1  0.04577737  0.93769461  0.92816842  1
  O  O8  1  0.03942436  0.36409000  0.04401056  1
  O  O9  1  0.06672164  0.97397399  0.02416314  1
  Mn  Mn10  1  0.90945035  0.52555537  0.83554488  1
  P  P11  1  0.93321091  0.77809542  0.93999010  1
  O  O12  1  0.68293613  0.97748268  0.10236673  1
  Ru  Ru13  1  0.06840638  0.06691104  0.07681109  1
  O  O14  1  0.05019934  0.49972159  0.76223493  1
  P  P15  1  0.95236498  0.50420374  0.06797808  1
  O  O16  1  0.41321054  0.97719681  0.93276328  1
  O  O17  1  0.44152850  0.10082898  0.64850193  1
  O  O18  1  0.53238589  0.94013023  0.50528049  1
  O  O19  1  0.94870394  0.26165649  0.52148896  1
  O  O20  1  0.10705240  0.07074860  0.66348457  1
  O  O21  1  0.38539654  0.98478287  0.11268704  1
  O  O22  1  0.07300677  0.97261596  0.29308164  1
  O  O23  1  0.07367662  0.28174451  0.46096486  1
