# generated using pymatgen
data_Li4Fe2CoNiP5O8
_symmetry_space_group_name_H-M   'P 1'
_cell_length_a   3.42567149
_cell_length_b   6.06587962
_cell_length_c   4.79613679
_cell_angle_alpha   79.14885878
_cell_angle_beta   147.29470174
_cell_angle_gamma   104.82106366
_symmetry_Int_Tables_number   1
_chemical_formula_structural   Li4Fe2CoNiP5O8
_chemical_formula_sum   'Li4 Fe2 Co1 Ni1 P5 O8'
_cell_volume   51.98823301
_cell_formula_units_Z   1
loop_
 _symmetry_equiv_pos_site_id
 _symmetry_equiv_pos_as_xyz
  1  'x, y, z'
loop_
 _atom_site_type_symbol
 _atom_site_label
 _atom_site_symmetry_multiplicity
 _atom_site_fract_x
 _atom_site_fract_y
 _atom_site_fract_z
 _atom_site_occupancy
  Li  Li0  1  0.93822324  0.86411184  0.38350272  1
  Li  Li1  1  0.38143051  0.39426801  0.30119681  1
  Li  Li2  1  0.58308816  0.30281293  0.91045809  1
  Li  Li3  1  0.89397842  0.10351604  0.05637179  1
  Fe  Fe4  1  0.93183374  0.94708610  0.63716823  1
  O  O5  1  0.04980751  0.34731242  0.06458116  1
  Fe  Fe6  1  0.08777311  0.96139979  0.03566733  1
  P  P7  1  0.89157504  0.45937082  0.81071806  1
  Ni  Ni8  1  0.91713387  0.72940534  0.92758816  1
  P  P9  1  0.62177128  0.96333683  0.12392657  1
  O  O10  1  0.08276019  0.07803104  0.10804141  1
  O  O11  1  0.06631216  0.53533834  0.74244189  1
  Co  Co12  1  0.93839282  0.44180405  0.08900084  1
  O  O13  1  0.37010676  0.96393645  0.91812265  1
  O  O14  1  0.46870241  0.11350715  0.60548538  1
  O  O15  1  0.50356525  0.92419261  0.52686596  1
  P  P16  1  0.93583894  0.30394498  0.58134449  1
  O  O17  1  0.12948962  0.08207045  0.66329789  1
  O  O18  1  0.40221855  0.97395289  0.14001974  1
  P  P19  1  0.09236903  0.96178144  0.33064020  1
  P  P20  1  0.09634224  0.30835834  0.45797765  1
