# generated using pymatgen
data_Li4V(PO2)5
_symmetry_space_group_name_H-M   'P 1'
_cell_length_a   3.07957735
_cell_length_b   5.64144490
_cell_length_c   5.99137528
_cell_angle_alpha   94.48623411
_cell_angle_beta   82.04469212
_cell_angle_gamma   71.16131352
_symmetry_Int_Tables_number   1
_chemical_formula_structural   Li4V(PO2)5
_chemical_formula_sum   'Li4 V1 P5 O10'
_cell_volume   96.72331065
_cell_formula_units_Z   1
loop_
 _symmetry_equiv_pos_site_id
 _symmetry_equiv_pos_as_xyz
  1  'x, y, z'
loop_
 _atom_site_type_symbol
 _atom_site_label
 _atom_site_symmetry_multiplicity
 _atom_site_fract_x
 _atom_site_fract_y
 _atom_site_fract_z
 _atom_site_occupancy
  Li  Li0  1  0.93843144  0.86775362  0.36211458  1
  Li  Li1  1  0.39370596  0.39217520  0.28750893  1
  Li  Li2  1  0.56872493  0.28765693  0.90881604  1
  Li  Li3  1  0.89278167  0.10603631  0.05713398  1
  O  O4  1  0.05032175  0.34217253  0.06259754  1
  O  O5  1  0.08550555  0.96094787  0.03762721  1
  V  V6  1  0.89037073  0.46987742  0.82327074  1
  P  P7  1  0.91458321  0.75857455  0.92822528  1
  O  O8  1  0.64793932  0.96156001  0.11762927  1
  O  O9  1  0.08181413  0.07943618  0.10218578  1
  O  O10  1  0.06540412  0.52348500  0.74818438  1
  P  P11  1  0.93853331  0.45316339  0.08674298  1
  O  O12  1  0.39590544  0.96137244  0.91829568  1
  O  O13  1  0.45453739  0.11570145  0.63593787  1
  O  O14  1  0.51152074  0.92434615  0.51397908  1
  O  O15  1  0.93505234  0.29015219  0.57135522  1
  P  P16  1  0.12401240  0.08202520  0.65448856  1
  P  P17  1  0.39495698  0.97093844  0.13311371  1
  O  O18  1  0.09097967  0.96061373  0.32112426  1
  P  P19  1  0.09404669  0.29279324  0.44938520  1
