# generated using pymatgen
data_Li3FeSbP3O9F
_symmetry_space_group_name_H-M   'P 1'
_cell_length_a   8.59690345
_cell_length_b   6.40898272
_cell_length_c   2.43588443
_cell_angle_alpha   134.91765128
_cell_angle_beta   66.77888757
_cell_angle_gamma   85.33551657
_symmetry_Int_Tables_number   1
_chemical_formula_structural   Li3FeSbP3O9F
_chemical_formula_sum   'Li3 Fe1 Sb1 P3 O9 F1'
_cell_volume   72.78242820
_cell_formula_units_Z   1
loop_
 _symmetry_equiv_pos_site_id
 _symmetry_equiv_pos_as_xyz
  1  'x, y, z'
loop_
 _atom_site_type_symbol
 _atom_site_label
 _atom_site_symmetry_multiplicity
 _atom_site_fract_x
 _atom_site_fract_y
 _atom_site_fract_z
 _atom_site_occupancy
  Li  Li0  1  0.91958207  0.83030200  0.32964763  1
  Li  Li1  1  0.40695438  0.38992369  0.33602893  1
  Li  Li2  1  0.56577104  0.32158336  0.89135695  1
  Sb  Sb3  1  0.86940360  0.12667415  0.07700816  1
  O  O4  1  0.86406803  0.47597194  0.78656495  1
  O  O5  1  0.89271480  0.72913802  0.91252249  1
  O  O6  1  0.62854040  0.94263273  0.16115789  1
  O  O7  1  0.10610913  0.09500384  0.12676561  1
  P  P8  1  0.08310875  0.54461884  0.70853984  1
  P  P9  1  0.92086971  0.51263177  0.11013281  1
  Fe  Fe10  1  0.43929705  0.94181973  0.90073168  1
  F  F11  1  0.48121938  0.14141887  0.61195099  1
  O  O12  1  0.47490811  0.89688313  0.52687120  1
  P  P13  1  0.91814590  0.32742023  0.53533089  1
  O  O14  1  0.15447293  0.09764446  0.62903434  1
  O  O15  1  0.39227927  0.95316952  0.16729906  1
  O  O16  1  0.11607353  0.94244725  0.32410356  1
  O  O17  1  0.11624061  0.33897921  0.44721705  1
