# generated using pymatgen
data_Li2VZnFe(PO2)5
_symmetry_space_group_name_H-M   'P 1'
_cell_length_a   3.95527924
_cell_length_b   4.48567754
_cell_length_c   7.34650970
_cell_angle_alpha   59.18053668
_cell_angle_beta   79.42098915
_cell_angle_gamma   77.95988227
_symmetry_Int_Tables_number   1
_chemical_formula_structural   Li2VZnFe(PO2)5
_chemical_formula_sum   'Li2 V1 Zn1 Fe1 P5 O10'
_cell_volume   109.01628003
_cell_formula_units_Z   1
loop_
 _symmetry_equiv_pos_site_id
 _symmetry_equiv_pos_as_xyz
  1  'x, y, z'
loop_
 _atom_site_type_symbol
 _atom_site_label
 _atom_site_symmetry_multiplicity
 _atom_site_fract_x
 _atom_site_fract_y
 _atom_site_fract_z
 _atom_site_occupancy
  Li  Li0  1  0.93098539  0.85438251  0.34906989  1
  Zn  Zn1  1  0.38999268  0.38883746  0.30904379  1
  Li  Li2  1  0.57389444  0.31418791  0.90414375  1
  Fe  Fe3  1  0.88520926  0.11094554  0.06209505  1
  O  O4  1  0.05583303  0.36252332  0.07037412  1
  P  P5  1  0.09558193  0.95232195  0.04238021  1
  P  P6  1  0.87670362  0.47348213  0.80541927  1
  P  P7  1  0.90626782  0.74240470  0.92122406  1
  P  P8  1  0.62223202  0.95620656  0.13033003  1
  O  O9  1  0.09215795  0.08382744  0.11259342  1
  O  O10  1  0.07135123  0.54689020  0.73547459  1
  V  V11  1  0.93176520  0.47315469  0.09372059  1
  O  O12  1  0.39755377  0.95506686  0.91379732  1
  O  O13  1  0.46125332  0.12593326  0.60605931  1
  P  P14  1  0.49714586  0.91346735  0.54225975  1
  O  O15  1  0.93080288  0.31164268  0.56951022  1
  O  O16  1  0.13889618  0.08805707  0.65098035  1
  O  O17  1  0.38729930  0.96595627  0.14802742  1
  O  O18  1  0.10008670  0.95357764  0.32122880  1
  O  O19  1  0.10095740  0.31516507  0.44295347  1
