# generated using pymatgen
data_Li4SnP4O9
_symmetry_space_group_name_H-M   'P 1'
_cell_length_a   4.82194348
_cell_length_b   3.14211962
_cell_length_c   3.79190268
_cell_angle_alpha   51.35854725
_cell_angle_beta   102.76851550
_cell_angle_gamma   101.55602534
_symmetry_Int_Tables_number   1
_chemical_formula_structural   Li4SnP4O9
_chemical_formula_sum   'Li4 Sn1 P4 O9'
_cell_volume   43.61727929
_cell_formula_units_Z   1
loop_
 _symmetry_equiv_pos_site_id
 _symmetry_equiv_pos_as_xyz
  1  'x, y, z'
loop_
 _atom_site_type_symbol
 _atom_site_label
 _atom_site_symmetry_multiplicity
 _atom_site_fract_x
 _atom_site_fract_y
 _atom_site_fract_z
 _atom_site_occupancy
  Li  Li0  1  0.92017949  0.82558030  0.33112851  1
  Li  Li1  1  0.39969006  0.38466910  0.34981823  1
  Li  Li2  1  0.56112826  0.34062374  0.89241809  1
  Li  Li3  1  0.86918235  0.12579910  0.07469867  1
  Sn  Sn4  1  0.85997152  0.47048172  0.77568901  1
  O  O5  1  0.89200068  0.72188634  0.90971392  1
  O  O6  1  0.61675882  0.94459987  0.15662363  1
  P  P7  1  0.10586686  0.09409180  0.13288116  1
  O  O8  1  0.08321337  0.56364363  0.71028858  1
  O  O9  1  0.91979718  0.51782084  0.11464352  1
  P  P10  1  0.43049872  0.94360900  0.89914107  1
  O  O11  1  0.48395723  0.14103267  0.59336275  1
  O  O12  1  0.47161618  0.89610761  0.53403687  1
  P  P13  1  0.91667712  0.33796301  0.55152690  1
  O  O14  1  0.15657279  0.09604265  0.63035995  1
  O  O15  1  0.37815496  0.95279968  0.17451942  1
  P  P16  1  0.11780287  0.94096404  0.32956538  1
  O  O17  1  0.11782120  0.33620864  0.45485017  1
