# generated using pymatgen
data_Li7Mn2P5O12
_symmetry_space_group_name_H-M   'P 1'
_cell_length_a   6.59932719
_cell_length_b   7.55135460
_cell_length_c   6.67636122
_cell_angle_alpha   81.97040318
_cell_angle_beta   68.45285034
_cell_angle_gamma   96.77100294
_symmetry_Int_Tables_number   1
_chemical_formula_structural   Li7Mn2P5O12
_chemical_formula_sum   'Li7 Mn2 P5 O12'
_cell_volume   301.20820378
_cell_formula_units_Z   1
loop_
 _symmetry_equiv_pos_site_id
 _symmetry_equiv_pos_as_xyz
  1  'x, y, z'
loop_
 _atom_site_type_symbol
 _atom_site_label
 _atom_site_symmetry_multiplicity
 _atom_site_fract_x
 _atom_site_fract_y
 _atom_site_fract_z
 _atom_site_occupancy
  Li  Li0  1  0.95428032  0.89393675  0.32042107  1
  Li  Li1  1  0.40444821  0.36500695  0.26010808  1
  Li  Li2  1  0.55493975  0.25559431  0.92557269  1
  Li  Li3  1  0.91736710  0.08686702  0.03786542  1
  Mn  Mn4  1  0.94916856  0.96589339  0.68587959  1
  P  P5  1  0.75689131  0.98949498  0.93252224  1
  P  P6  1  0.95783961  0.08363251  0.90137184  1
  Li  Li7  1  0.92657316  0.08399640  0.36974898  1
  Li  Li8  1  0.95849770  0.98050475  0.03184181  1
  Li  Li9  1  0.04355137  0.93652475  0.93085206  1
  Mn  Mn10  1  0.03818149  0.34063214  0.04111040  1
  O  O11  1  0.06518064  0.97829586  0.02252903  1
  O  O12  1  0.91443002  0.51452172  0.84507746  1
  P  P13  1  0.93447244  0.77144450  0.94309336  1
  O  O14  1  0.66444975  0.97951472  0.09862809  1
  O  O15  1  0.06464624  0.06629081  0.07429295  1
  O  O16  1  0.04823510  0.48400950  0.76449609  1
  O  O17  1  0.95494318  0.46604884  0.06344086  1
  O  O18  1  0.38146928  0.97698045  0.93495893  1
  O  O19  1  0.44273272  0.09855776  0.64494312  1
  P  P20  1  0.52713227  0.94659483  0.51158464  1
  O  O21  1  0.95104742  0.26022023  0.54498041  1
  O  O22  1  0.10243881  0.06909464  0.66459149  1
  O  O23  1  0.40002701  0.98783338  0.10385532  1
  O  O24  1  0.07046718  0.97501117  0.29262036  1
  P  P25  1  0.07092547  0.27760324  0.44650945  1
