# generated using pymatgen
data_Li3CrFeP4IO10
_symmetry_space_group_name_H-M   'P 1'
_cell_length_a   2.72283707
_cell_length_b   5.57653432
_cell_length_c   3.75888289
_cell_angle_alpha   66.21178316
_cell_angle_beta   100.71741720
_cell_angle_gamma   64.98581297
_symmetry_Int_Tables_number   1
_chemical_formula_structural   Li3CrFeP4IO10
_chemical_formula_sum   'Li3 Cr1 Fe1 P4 I1 O10'
_cell_volume   42.72954794
_cell_formula_units_Z   1
loop_
 _symmetry_equiv_pos_site_id
 _symmetry_equiv_pos_as_xyz
  1  'x, y, z'
loop_
 _atom_site_type_symbol
 _atom_site_label
 _atom_site_symmetry_multiplicity
 _atom_site_fract_x
 _atom_site_fract_y
 _atom_site_fract_z
 _atom_site_occupancy
  Li  Li0  1  0.92470998  0.84092337  0.34516501  1
  Li  Li1  1  0.40267423  0.39238209  0.32745421  1
  Cr  Cr2  1  0.56889218  0.32205719  0.89807773  1
  Li  Li3  1  0.87584215  0.12150232  0.06937189  1
  O  O4  1  0.06079919  0.38965458  0.07789696  1
  P  P5  1  0.10223634  0.94800115  0.04890576  1
  P  P6  1  0.86769307  0.46587974  0.78606647  1
  O  O7  1  0.89755970  0.73023868  0.91589379  1
  O  O8  1  0.62613738  0.94788229  0.14950684  1
  O  O9  1  0.10006426  0.08956445  0.12368126  1
  Fe  Fe10  1  0.07786395  0.55259907  0.71600139  1
  O  O11  1  0.92675066  0.50853032  0.10438499  1
  O  O12  1  0.42370880  0.94697982  0.90612954  1
  O  O13  1  0.47628534  0.13484447  0.59755254  1
  P  P14  1  0.48437557  0.90568328  0.52782810  1
  O  O15  1  0.92162138  0.32080793  0.55044883  1
  I  I16  1  0.15094312  0.09225305  0.64343977  1
  O  O17  1  0.37569571  0.95854998  0.16559210  1
  O  O18  1  0.10898162  0.94648635  0.31303284  1
  P  P19  1  0.10841043  0.33528501  0.44701546  1
