# generated using pymatgen
data_RbLi3FeP7WO5
_symmetry_space_group_name_H-M   'P 1'
_cell_length_a   5.11146491
_cell_length_b   4.32631708
_cell_length_c   2.79411225
_cell_angle_alpha   72.28161147
_cell_angle_beta   102.66855507
_cell_angle_gamma   160.22179240
_symmetry_Int_Tables_number   1
_chemical_formula_structural   RbLi3FeP7WO5
_chemical_formula_sum   'Rb1 Li3 Fe1 P7 W1 O5'
_cell_volume   19.48020413
_cell_formula_units_Z   1
loop_
 _symmetry_equiv_pos_site_id
 _symmetry_equiv_pos_as_xyz
  1  'x, y, z'
loop_
 _atom_site_type_symbol
 _atom_site_label
 _atom_site_symmetry_multiplicity
 _atom_site_fract_x
 _atom_site_fract_y
 _atom_site_fract_z
 _atom_site_occupancy
  Li  Li0  1  0.92197323  0.82926232  0.34234461  1
  Li  Li1  1  0.37045506  0.39342365  0.33923998  1
  Fe  Fe2  1  0.58684528  0.33833349  0.89440721  1
  Li  Li3  1  0.87385160  0.12286606  0.07172948  1
  O  O4  1  0.86527109  0.46225059  0.77739942  1
  P  P5  1  0.89508665  0.71297562  0.91378266  1
  W  W6  1  0.61299133  0.94899756  0.14590725  1
  P  P7  1  0.10336110  0.09156609  0.12512791  1
  Rb  Rb8  1  0.08149467  0.57220232  0.70918012  1
  P  P9  1  0.92444253  0.48743153  0.10872690  1
  P  P10  1  0.39864114  0.94270551  0.90406978  1
  P  P11  1  0.48557901  0.13671657  0.56455135  1
  P  P12  1  0.46428344  0.89934516  0.55523962  1
  O  O13  1  0.91891277  0.33696717  0.57844222  1
  P  P14  1  0.15624602  0.09540792  0.65193158  1
  O  O15  1  0.37643367  0.95676810  0.16713478  1
  O  O16  1  0.11252763  0.94275343  0.32378337  1
  O  O17  1  0.11338184  0.34273145  0.44335732  1
