# generated using pymatgen
data_Li6Fe2P4WO10
_symmetry_space_group_name_H-M   'P 1'
_cell_length_a   5.31226333
_cell_length_b   6.21429367
_cell_length_c   4.72491481
_cell_angle_alpha   115.15555707
_cell_angle_beta   87.39365251
_cell_angle_gamma   83.42041209
_symmetry_Int_Tables_number   1
_chemical_formula_structural   Li6Fe2P4WO10
_chemical_formula_sum   'Li6 Fe2 P4 W1 O10'
_cell_volume   139.48390845
_cell_formula_units_Z   1
loop_
 _symmetry_equiv_pos_site_id
 _symmetry_equiv_pos_as_xyz
  1  'x, y, z'
loop_
 _atom_site_type_symbol
 _atom_site_label
 _atom_site_symmetry_multiplicity
 _atom_site_fract_x
 _atom_site_fract_y
 _atom_site_fract_z
 _atom_site_occupancy
  Li  Li0  1  0.94331861  0.86954534  0.33676195  1
  Li  Li1  1  0.40783206  0.38414410  0.30168441  1
  Li  Li2  1  0.56423783  0.29049960  0.91472685  1
  Li  Li3  1  0.89862663  0.10037878  0.05013966  1
  Fe  Fe4  1  0.93741208  0.94913167  0.64464903  1
  Fe  Fe5  1  0.72471583  0.97891146  0.92242450  1
  Li  Li6  1  0.94843996  0.96840447  0.04449650  1
  Li  Li7  1  0.04629139  0.37218130  0.05549468  1
  P  P8  1  0.08025522  0.96671104  0.03234203  1
  O  O9  1  0.89551872  0.46993327  0.81499791  1
  P  P10  1  0.92155391  0.74775219  0.93276256  1
  O  O11  1  0.64468789  0.96626902  0.12081162  1
  O  O12  1  0.07929056  0.07386849  0.09740030  1
  P  P13  1  0.06083926  0.53833032  0.74383730  1
  W  W14  1  0.94352514  0.49179089  0.07978974  1
  O  O15  1  0.41306999  0.96788359  0.92274928  1
  O  O16  1  0.45825884  0.11249152  0.62971389  1
  O  O17  1  0.50790441  0.92820078  0.51918316  1
  O  O18  1  0.94014472  0.29458556  0.55483592  1
  P  P19  1  0.12320472  0.07774535  0.65300739  1
  O  O20  1  0.38285708  0.97480202  0.13130203  1
  O  O21  1  0.08414883  0.96574593  0.31230411  1
  O  O22  1  0.08932912  0.30079529  0.46876881  1
