# generated using pymatgen
data_Li4P4O11
_symmetry_space_group_name_H-M   'P 1'
_cell_length_a   5.25992670
_cell_length_b   3.57739031
_cell_length_c   3.59929071
_cell_angle_alpha   51.67505928
_cell_angle_beta   40.92638273
_cell_angle_gamma   57.83533761
_symmetry_Int_Tables_number   1
_chemical_formula_structural   Li4P4O11
_chemical_formula_sum   'Li4 P4 O11'
_cell_volume   34.53701343
_cell_formula_units_Z   1
loop_
 _symmetry_equiv_pos_site_id
 _symmetry_equiv_pos_as_xyz
  1  'x, y, z'
loop_
 _atom_site_type_symbol
 _atom_site_label
 _atom_site_symmetry_multiplicity
 _atom_site_fract_x
 _atom_site_fract_y
 _atom_site_fract_z
 _atom_site_occupancy
  Li  Li0  1  0.92700660  0.85721487  0.35733542  1
  Li  Li1  1  0.40393966  0.37592077  0.30500606  1
  Li  Li2  1  0.55665272  0.30307633  0.90011537  1
  Li  Li3  1  0.87884420  0.11821220  0.06941991  1
  O  O4  1  0.09933940  0.94889313  0.04822882  1
  P  P5  1  0.87612033  0.47926584  0.80269277  1
  O  O6  1  0.90053254  0.74364954  0.91821647  1
  O  O7  1  0.63814783  0.95167810  0.13905182  1
  P  P8  1  0.09515309  0.08925654  0.11821425  1
  O  O9  1  0.07707124  0.52793562  0.73145115  1
  O  O10  1  0.92761350  0.48698184  0.10120173  1
  O  O11  1  0.40461984  0.95094466  0.90766239  1
  O  O12  1  0.46677667  0.12771097  0.62061530  1
  O  O13  1  0.50830263  0.90756589  0.51393205  1
  P  P14  1  0.92550159  0.30736744  0.54895562  1
  O  O15  1  0.14156000  0.09034580  0.64558214  1
  P  P16  1  0.38422340  0.96226579  0.15105930  1
  O  O17  1  0.10542670  0.94661653  0.33072630  1
  O  O18  1  0.10622448  0.31221473  0.46152863  1
