# generated using pymatgen
data_Li3CrFe2P5O7
_symmetry_space_group_name_H-M   'P 1'
_cell_length_a   5.68634791
_cell_length_b   8.02335529
_cell_length_c   2.57598706
_cell_angle_alpha   65.71516891
_cell_angle_beta   91.43131351
_cell_angle_gamma   97.81532783
_symmetry_Int_Tables_number   1
_chemical_formula_structural   Li3CrFe2P5O7
_chemical_formula_sum   'Li3 Cr1 Fe2 P5 O7'
_cell_volume   106.06879910
_cell_formula_units_Z   1
loop_
 _symmetry_equiv_pos_site_id
 _symmetry_equiv_pos_as_xyz
  1  'x, y, z'
loop_
 _atom_site_type_symbol
 _atom_site_label
 _atom_site_symmetry_multiplicity
 _atom_site_fract_x
 _atom_site_fract_y
 _atom_site_fract_z
 _atom_site_occupancy
  Li  Li0  1  0.92191732  0.84114385  0.35152450  1
  Li  Li1  1  0.40562499  0.38045526  0.31797996  1
  Li  Li2  1  0.56764013  0.31966975  0.89246804  1
  Fe  Fe3  1  0.87194741  0.12509568  0.07729622  1
  O  O4  1  0.86558276  0.47714126  0.79456449  1
  O  O5  1  0.89514613  0.73075217  0.91194522  1
  P  P6  1  0.63873857  0.94576496  0.14624035  1
  P  P7  1  0.10317202  0.09441380  0.12354925  1
  P  P8  1  0.08347971  0.52147782  0.71980983  1
  Cr  Cr9  1  0.92131454  0.48530394  0.10787896  1
  O  O10  1  0.40783358  0.94433469  0.90043932  1
  O  O11  1  0.47258154  0.13725087  0.61844575  1
  P  P12  1  0.49341425  0.89812601  0.52721637  1
  O  O13  1  0.91835570  0.31470683  0.55512798  1
  O  O14  1  0.14940920  0.09689298  0.64286792  1
  O  O15  1  0.39278716  0.95358223  0.15813559  1
  Fe  Fe16  1  0.11431823  0.94325346  0.33726758  1
  P  P17  1  0.11491054  0.32202503  0.45109984  1
