# generated using pymatgen
data_Li4VCrFeP4O7
_symmetry_space_group_name_H-M   'P 1'
_cell_length_a   4.56866270
_cell_length_b   2.72499820
_cell_length_c   2.10962612
_cell_angle_alpha   94.64619644
_cell_angle_beta   65.14492394
_cell_angle_gamma   96.68223222
_symmetry_Int_Tables_number   1
_chemical_formula_structural   Li4VCrFeP4O7
_chemical_formula_sum   'Li4 V1 Cr1 Fe1 P4 O7'
_cell_volume   23.65436038
_cell_formula_units_Z   1
loop_
 _symmetry_equiv_pos_site_id
 _symmetry_equiv_pos_as_xyz
  1  'x, y, z'
loop_
 _atom_site_type_symbol
 _atom_site_label
 _atom_site_symmetry_multiplicity
 _atom_site_fract_x
 _atom_site_fract_y
 _atom_site_fract_z
 _atom_site_occupancy
  Li  Li0  1  0.91846281  0.83364701  0.35134789  1
  Li  Li1  1  0.37977734  0.39808971  0.32190040  1
  Li  Li2  1  0.58721596  0.33444792  0.89173388  1
  Li  Li3  1  0.86778504  0.12622751  0.07831731  1
  P  P4  1  0.86370903  0.47610009  0.78700727  1
  P  P5  1  0.88800055  0.71595174  0.90908903  1
  O  O6  1  0.60839134  0.94509912  0.14649697  1
  V  V7  1  0.10392907  0.09794542  0.12942497  1
  Cr  Cr8  1  0.08562651  0.54470241  0.71964639  1
  P  P9  1  0.91934037  0.47357985  0.11339586  1
  O  O10  1  0.38217834  0.94049752  0.89835250  1
  O  O11  1  0.47588566  0.13763313  0.58805794  1
  O  O12  1  0.47353497  0.89840347  0.55326182  1
  O  O13  1  0.91664875  0.32584700  0.58381057  1
  Fe  Fe14  1  0.15855370  0.09755902  0.65116388  1
  O  O15  1  0.39340934  0.95466149  0.16466153  1
  P  P16  1  0.11461318  0.93952441  0.32981959  1
  O  O17  1  0.11830965  0.33348131  0.42860150  1
