# generated using pymatgen
data_BaSrLi3P5O8
_symmetry_space_group_name_H-M   'P 1'
_cell_length_a   3.79795348
_cell_length_b   4.34673285
_cell_length_c   3.38518750
_cell_angle_alpha   113.06320768
_cell_angle_beta   99.16010240
_cell_angle_gamma   126.41564609
_symmetry_Int_Tables_number   1
_chemical_formula_structural   BaSrLi3P5O8
_chemical_formula_sum   'Ba1 Sr1 Li3 P5 O8'
_cell_volume   35.11172831
_cell_formula_units_Z   1
loop_
 _symmetry_equiv_pos_site_id
 _symmetry_equiv_pos_as_xyz
  1  'x, y, z'
loop_
 _atom_site_type_symbol
 _atom_site_label
 _atom_site_symmetry_multiplicity
 _atom_site_fract_x
 _atom_site_fract_y
 _atom_site_fract_z
 _atom_site_occupancy
  Li  Li0  1  0.92131233  0.84349853  0.38667959  1
  Li  Li1  1  0.38584983  0.40991578  0.31487763  1
  P  P2  1  0.57110322  0.31578839  0.89408392  1
  Li  Li3  1  0.87215257  0.12411135  0.07785179  1
  O  O4  1  0.86754370  0.45254213  0.79361087  1
  O  O5  1  0.89407086  0.72703779  0.91062909  1
  P  P6  1  0.62267452  0.94478166  0.14222780  1
  P  P7  1  0.09968618  0.09420107  0.12758440  1
  O  O8  1  0.08376071  0.53621805  0.72106904  1
  O  O9  1  0.92066121  0.45373464  0.10986726  1
  O  O10  1  0.38707912  0.94356531  0.90015739  1
  P  P11  1  0.47359556  0.13277289  0.59869093  1
  Sr  Sr12  1  0.49395686  0.90202534  0.51303661  1
  O  O13  1  0.91949958  0.32491213  0.57613856  1
  Ba  Ba14  1  0.14979236  0.09727670  0.64296699  1
  P  P15  1  0.40120873  0.95621777  0.16031580  1
  O  O16  1  0.10993048  0.94339824  0.33450410  1
  O  O17  1  0.11749128  0.31807593  0.44816250  1
