# generated using pymatgen
data_Li3ZnNiSbPO11
_symmetry_space_group_name_H-M   'P 1'
_cell_length_a   4.63786513
_cell_length_b   2.42195299
_cell_length_c   5.16808448
_cell_angle_alpha   88.50923601
_cell_angle_beta   86.90079380
_cell_angle_gamma   52.98776919
_symmetry_Int_Tables_number   1
_chemical_formula_structural   Li3ZnNiSbPO11
_chemical_formula_sum   'Li3 Zn1 Ni1 Sb1 P1 O11'
_cell_volume   46.28517884
_cell_formula_units_Z   1
loop_
 _symmetry_equiv_pos_site_id
 _symmetry_equiv_pos_as_xyz
  1  'x, y, z'
loop_
 _atom_site_type_symbol
 _atom_site_label
 _atom_site_symmetry_multiplicity
 _atom_site_fract_x
 _atom_site_fract_y
 _atom_site_fract_z
 _atom_site_occupancy
  Li  Li0  1  0.92369622  0.84343976  0.33500409  1
  Li  Li1  1  0.40852600  0.38424045  0.31952968  1
  Ni  Ni2  1  0.55707890  0.32318899  0.89525050  1
  Li  Li3  1  0.87132579  0.12036264  0.07073772  1
  O  O4  1  0.87052208  0.48372373  0.79115140  1
  Sb  Sb5  1  0.89759773  0.73003817  0.91400212  1
  O  O6  1  0.62609750  0.94790626  0.14708002  1
  Zn  Zn7  1  0.10325173  0.09235415  0.12298866  1
  O  O8  1  0.07969661  0.54291356  0.72414190  1
  O  O9  1  0.92356765  0.50901031  0.10784476  1
  O  O10  1  0.40169516  0.94604933  0.90590608  1
  O  O11  1  0.47551557  0.13637400  0.60530734  1
  O  O12  1  0.48901233  0.90439129  0.54003489  1
  O  O13  1  0.92114210  0.31408983  0.55571634  1
  O  O14  1  0.14981192  0.09446274  0.63975275  1
  P  P15  1  0.39204949  0.95697033  0.15384355  1
  O  O16  1  0.11120787  0.94380689  0.32489142  1
  O  O17  1  0.11107432  0.32920983  0.45358086  1
