# generated using pymatgen
data_Li4(P2O3)3
_symmetry_space_group_name_H-M   'P 1'
_cell_length_a   2.69972431
_cell_length_b   4.17189904
_cell_length_c   2.87716522
_cell_angle_alpha   73.78198770
_cell_angle_beta   110.66478076
_cell_angle_gamma   96.96947112
_symmetry_Int_Tables_number   1
_chemical_formula_structural   Li4(P2O3)3
_chemical_formula_sum   'Li4 P6 O9'
_cell_volume   29.10458142
_cell_formula_units_Z   1
loop_
 _symmetry_equiv_pos_site_id
 _symmetry_equiv_pos_as_xyz
  1  'x, y, z'
loop_
 _atom_site_type_symbol
 _atom_site_label
 _atom_site_symmetry_multiplicity
 _atom_site_fract_x
 _atom_site_fract_y
 _atom_site_fract_z
 _atom_site_occupancy
  Li  Li0  1  0.92637670  0.84474593  0.38035423  1
  Li  Li1  1  0.37207422  0.39953876  0.32701564  1
  Li  Li2  1  0.57177442  0.33293489  0.90086669  1
  Li  Li3  1  0.87737310  0.11494583  0.07125577  1
  P  P4  1  0.10589818  0.94742763  0.04631075  1
  P  P5  1  0.87338716  0.45490736  0.79290879  1
  O  O6  1  0.90038002  0.72546351  0.91613227  1
  O  O7  1  0.60315436  0.95339626  0.13673517  1
  O  O8  1  0.09264936  0.08859472  0.12524018  1
  P  P9  1  0.07986007  0.56663710  0.72952706  1
  O  O10  1  0.92674118  0.44758624  0.10519994  1
  O  O11  1  0.38037416  0.95182037  0.90437311  1
  O  O12  1  0.47412017  0.12879050  0.59741032  1
  O  O13  1  0.47912329  0.90722501  0.53955775  1
  O  O14  1  0.92542404  0.33055890  0.60126656  1
  P  P15  1  0.14850836  0.08955806  0.65511489  1
  P  P16  1  0.38434196  0.96095079  0.15798548  1
  O  O17  1  0.10886534  0.94909275  0.34880441  1
  P  P18  1  0.11122011  0.32563072  0.45081282  1
