# generated using pymatgen
data_Li3Mn2FeP6AuO5
_symmetry_space_group_name_H-M   'P 1'
_cell_length_a   2.99094124
_cell_length_b   5.08858443
_cell_length_c   2.63933730
_cell_angle_alpha   74.48073579
_cell_angle_beta   63.76936937
_cell_angle_gamma   98.50889816
_symmetry_Int_Tables_number   1
_chemical_formula_structural   Li3Mn2FeP6AuO5
_chemical_formula_sum   'Li3 Mn2 Fe1 P6 Au1 O5'
_cell_volume   33.03146426
_cell_formula_units_Z   1
loop_
 _symmetry_equiv_pos_site_id
 _symmetry_equiv_pos_as_xyz
  1  'x, y, z'
loop_
 _atom_site_type_symbol
 _atom_site_label
 _atom_site_symmetry_multiplicity
 _atom_site_fract_x
 _atom_site_fract_y
 _atom_site_fract_z
 _atom_site_occupancy
  Li  Li0  1  0.92216158  0.85114527  0.36365408  1
  Li  Li1  1  0.37394932  0.39459530  0.29390338  1
  Mn  Mn2  1  0.58752745  0.31212631  0.89647752  1
  Li  Li3  1  0.87659562  0.12194380  0.07253312  1
  P  P4  1  0.87173921  0.48589027  0.80053693  1
  O  O5  1  0.89450520  0.73761129  0.91346991  1
  Mn  Mn6  1  0.63326120  0.94944096  0.13596198  1
  Au  Au7  1  0.09852012  0.09418672  0.11916094  1
  P  P8  1  0.08071364  0.52133745  0.72875464  1
  Fe  Fe9  1  0.92191833  0.45433229  0.10429935  1
  P  P10  1  0.37651098  0.94468236  0.90386796  1
  P  P11  1  0.46311682  0.13004947  0.60445452  1
  P  P12  1  0.50925249  0.90122384  0.54715806  1
  O  O13  1  0.92205966  0.29917559  0.58130181  1
  P  P14  1  0.14877334  0.09553279  0.65556604  1
  O  O15  1  0.39876196  0.95826298  0.15000267  1
  O  O16  1  0.10999340  0.94353598  0.32964158  1
  O  O17  1  0.11172155  0.31533593  0.43544513  1
