# generated using pymatgen
data_Li2TlVNiPWO11
_symmetry_space_group_name_H-M   'P 1'
_cell_length_a   4.03544385
_cell_length_b   3.72511365
_cell_length_c   2.63074116
_cell_angle_alpha   64.40728955
_cell_angle_beta   119.41899770
_cell_angle_gamma   147.03380765
_symmetry_Int_Tables_number   1
_chemical_formula_structural   Li2TlVNiPWO11
_chemical_formula_sum   'Li2 Tl1 V1 Ni1 P1 W1 O11'
_cell_volume   18.72771100
_cell_formula_units_Z   1
loop_
 _symmetry_equiv_pos_site_id
 _symmetry_equiv_pos_as_xyz
  1  'x, y, z'
loop_
 _atom_site_type_symbol
 _atom_site_label
 _atom_site_symmetry_multiplicity
 _atom_site_fract_x
 _atom_site_fract_y
 _atom_site_fract_z
 _atom_site_occupancy
  Tl  Tl0  1  0.91073012  0.82772225  0.35235283  1
  Li  Li1  1  0.39724088  0.39501145  0.33245710  1
  V  V2  1  0.58952051  0.33434349  0.88410258  1
  Li  Li3  1  0.85965502  0.13324778  0.08598829  1
  O  O4  1  0.85059220  0.47980687  0.77806699  1
  P  P5  1  0.88245678  0.71473503  0.90298933  1
  O  O6  1  0.61402309  0.93702489  0.15953979  1
  Ni  Ni7  1  0.11483543  0.10331216  0.13661814  1
  O  O8  1  0.09190613  0.53851664  0.70230657  1
  W  W9  1  0.91164821  0.48878852  0.12034715  1
  O  O10  1  0.40104419  0.93352467  0.89259487  1
  O  O11  1  0.49217436  0.14528690  0.58248723  1
  O  O12  1  0.47998571  0.88622826  0.54588765  1
  O  O13  1  0.91058278  0.32843196  0.56524485  1
  O  O14  1  0.16213591  0.10295601  0.63888061  1
  O  O15  1  0.40318269  0.94777095  0.17438230  1
  O  O16  1  0.12320393  0.93129778  0.32245341  1
  O  O17  1  0.12483480  0.34135261  0.43110064  1
