# generated using pymatgen
data_Li5P3O10
_symmetry_space_group_name_H-M   'P 1'
_cell_length_a   5.49406003
_cell_length_b   5.61430215
_cell_length_c   6.05213839
_cell_angle_alpha   72.96019418
_cell_angle_beta   100.14283126
_cell_angle_gamma   98.63482016
_symmetry_Int_Tables_number   1
_chemical_formula_structural   Li5P3O10
_chemical_formula_sum   'Li5 P3 O10'
_cell_volume   174.73020820
_cell_formula_units_Z   1
loop_
 _symmetry_equiv_pos_site_id
 _symmetry_equiv_pos_as_xyz
  1  'x, y, z'
loop_
 _atom_site_type_symbol
 _atom_site_label
 _atom_site_symmetry_multiplicity
 _atom_site_fract_x
 _atom_site_fract_y
 _atom_site_fract_z
 _atom_site_occupancy
  Li  Li0  1  0.95061743  0.89270389  0.27216920  1
  Li  Li1  1  0.39079952  0.43036345  0.41181955  1
  Li  Li2  1  0.67271823  0.44823581  0.71670169  1
  Li  Li3  1  0.79793108  0.13527358  0.04544985  1
  Li  Li4  1  0.94490582  0.56314737  0.59737015  1
  O  O5  1  0.85460401  0.69252092  0.96695954  1
  O  O6  1  0.58014989  0.95148021  0.05998568  1
  P  P7  1  0.04013513  0.09706306  0.19659762  1
  O  O8  1  0.01736430  0.55808288  0.52314019  1
  O  O9  1  0.97434253  0.49302006  0.02152577  1
  O  O10  1  0.28202668  0.97457546  0.96169913  1
  O  O11  1  0.35162938  0.07459030  0.44892174  1
  P  P12  1  0.51917547  0.96826482  0.61904639  1
  O  O13  1  0.95786923  0.55744815  0.36204845  1
  P  P14  1  0.05546321  0.07371641  0.71628159  1
  O  O15  1  0.36215648  0.97435951  0.04988668  1
  O  O16  1  0.03015655  0.97028321  0.34401909  1
  O  O17  1  0.04695198  0.57016718  0.22316821  1
