# generated using pymatgen
data_Li4VCuBiMo(P4O3)2
_symmetry_space_group_name_H-M   'P 1'
_cell_length_a   7.70097150
_cell_length_b   9.20568272
_cell_length_c   6.44556975
_cell_angle_alpha   84.22314981
_cell_angle_beta   109.31796000
_cell_angle_gamma   112.07805529
_symmetry_Int_Tables_number   1
_chemical_formula_structural   Li4VCuBiMo(P4O3)2
_chemical_formula_sum   'Li4 V1 Cu1 Bi1 Mo1 P8 O6'
_cell_volume   399.45008675
_cell_formula_units_Z   1
loop_
 _symmetry_equiv_pos_site_id
 _symmetry_equiv_pos_as_xyz
  1  'x, y, z'
loop_
 _atom_site_type_symbol
 _atom_site_label
 _atom_site_symmetry_multiplicity
 _atom_site_fract_x
 _atom_site_fract_y
 _atom_site_fract_z
 _atom_site_occupancy
  Li  Li0  1  0.96334928  0.87841272  0.21594605  1
  Li  Li1  1  0.43942785  0.41982186  0.52756488  1
  V  V2  1  0.60921299  0.53864223  0.72731853  1
  Li  Li3  1  0.77417421  0.12520632  0.03533442  1
  Cu  Cu4  1  0.97155815  0.95167375  0.59498572  1
  Li  Li5  1  0.52823436  0.99739552  0.96386522  1
  P  P6  1  0.01277326  0.51217121  0.00828555  1
  Bi  Bi7  1  0.02579018  0.97554457  0.01481219  1
  Mo  Mo8  1  0.95739621  0.49957335  0.52794409  1
  O  O9  1  0.88038266  0.61600792  0.97222388  1
  O  O10  1  0.52996880  0.96803856  0.05566932  1
  O  O11  1  0.03075642  0.08429285  0.23117754  1
  P  P12  1  0.01146976  0.66415727  0.46680659  1
  O  O13  1  0.98251480  0.56892329  0.01228375  1
  O  O14  1  0.36909381  0.99139833  0.96746886  1
  P  P15  1  0.41639847  0.06693285  0.44794342  1
  O  O16  1  0.44470009  0.98462075  0.58687568  1
  P  P17  1  0.96896839  0.66549891  0.31402531  1
  P  P18  1  0.04431714  0.06434199  0.62703419  1
  P  P19  1  0.29814219  0.98791862  0.04064738  1
  P  P20  1  0.02246217  0.98651284  0.35676941  1
  P  P21  1  0.03631156  0.67397380  0.26148766  1
