# generated using pymatgen
data_Li2VFeCo(PO6)2
_symmetry_space_group_name_H-M   'P 1'
_cell_length_a   6.50545888
_cell_length_b   8.41462348
_cell_length_c   7.29285205
_cell_angle_alpha   90.45805886
_cell_angle_beta   100.43837660
_cell_angle_gamma   82.43361349
_symmetry_Int_Tables_number   1
_chemical_formula_structural   Li2VFeCo(PO6)2
_chemical_formula_sum   'Li2 V1 Fe1 Co1 P2 O12'
_cell_volume   389.14099907
_cell_formula_units_Z   1
loop_
 _symmetry_equiv_pos_site_id
 _symmetry_equiv_pos_as_xyz
  1  'x, y, z'
loop_
 _atom_site_type_symbol
 _atom_site_label
 _atom_site_symmetry_multiplicity
 _atom_site_fract_x
 _atom_site_fract_y
 _atom_site_fract_z
 _atom_site_occupancy
  Li  Li0  1  0.95887655  0.92683852  0.17898460  1
  Li  Li1  1  0.49777430  0.37637737  0.37222886  1
  Co  Co2  1  0.56585026  0.36078745  0.72616029  1
  P  P3  1  0.85761362  0.12754895  0.03802913  1
  V  V4  1  0.02754862  0.97116929  0.01859838  1
  O  O5  1  0.95273942  0.68512648  0.61685896  1
  O  O6  1  0.87097949  0.80124187  0.96953040  1
  P  P7  1  0.70277399  0.95863897  0.05546407  1
  O  O8  1  0.03709017  0.09054269  0.12682639  1
  O  O9  1  0.01429740  0.43416944  0.50621104  1
  O  O10  1  0.97852516  0.59408498  0.01411583  1
  O  O11  1  0.33190474  0.98420936  0.96539646  1
  O  O12  1  0.34454101  0.06979042  0.57771444  1
  O  O13  1  0.56290448  0.97824132  0.54043043  1
  O  O14  1  0.96425641  0.49640831  0.26134640  1
  O  O15  1  0.04157633  0.06965775  0.68770206  1
  Fe  Fe16  1  0.40270582  0.98230779  0.03725812  1
  O  O17  1  0.02479497  0.97508484  0.29346263  1
  O  O18  1  0.03883562  0.52804178  0.28203049  1
