# generated using pymatgen
data_Li3CrFe(PO2)5
_symmetry_space_group_name_H-M   'P 1'
_cell_length_a   5.16097912
_cell_length_b   7.17363181
_cell_length_c   5.84021139
_cell_angle_alpha   71.11519047
_cell_angle_beta   89.06466248
_cell_angle_gamma   74.20863856
_symmetry_Int_Tables_number   1
_chemical_formula_structural   Li3CrFe(PO2)5
_chemical_formula_sum   'Li3 Cr1 Fe1 P5 O10'
_cell_volume   196.24944173
_cell_formula_units_Z   1
loop_
 _symmetry_equiv_pos_site_id
 _symmetry_equiv_pos_as_xyz
  1  'x, y, z'
loop_
 _atom_site_type_symbol
 _atom_site_label
 _atom_site_symmetry_multiplicity
 _atom_site_fract_x
 _atom_site_fract_y
 _atom_site_fract_z
 _atom_site_occupancy
  Li  Li0  1  0.95984370  0.90893829  0.29621363  1
  Li  Li1  1  0.39123645  0.44430432  0.41981521  1
  Cr  Cr2  1  0.67373329  0.45712870  0.73313117  1
  Li  Li3  1  0.80579662  0.11904547  0.03988466  1
  Fe  Fe4  1  0.01414273  0.36841688  0.01217765  1
  P  P5  1  0.02884744  0.97339714  0.01764937  1
  P  P6  1  0.95453590  0.52607101  0.61495507  1
  O  O7  1  0.86990654  0.70129597  0.97043425  1
  O  O8  1  0.54678112  0.96309847  0.04824606  1
  O  O9  1  0.03070435  0.08755875  0.20600134  1
  O  O10  1  0.01335407  0.58584505  0.54814923  1
  P  P11  1  0.97912538  0.46159220  0.01398873  1
  P  P12  1  0.26839527  0.98709154  0.96571720  1
  O  O13  1  0.31923372  0.06790032  0.46688509  1
  O  O14  1  0.51200056  0.98108965  0.60097408  1
  O  O15  1  0.96618384  0.58462626  0.37399715  1
  O  O16  1  0.04675149  0.06746891  0.73179507  1
  O  O17  1  0.35052252  0.98450494  0.04113779  1
  P  P18  1  0.02260559  0.98204976  0.38560113  1
  O  O19  1  0.03848807  0.58984113  0.22486231  1
