# generated using pymatgen
data_Li3SnMoP5O8
_symmetry_space_group_name_H-M   'P 1'
_cell_length_a   6.73453051
_cell_length_b   6.80354692
_cell_length_c   5.17365192
_cell_angle_alpha   81.07301819
_cell_angle_beta   42.18926251
_cell_angle_gamma   107.29357675
_symmetry_Int_Tables_number   1
_chemical_formula_structural   Li3SnMoP5O8
_chemical_formula_sum   'Li3 Sn1 Mo1 P5 O8'
_cell_volume   123.22450887
_cell_formula_units_Z   1
loop_
 _symmetry_equiv_pos_site_id
 _symmetry_equiv_pos_as_xyz
  1  'x, y, z'
loop_
 _atom_site_type_symbol
 _atom_site_label
 _atom_site_symmetry_multiplicity
 _atom_site_fract_x
 _atom_site_fract_y
 _atom_site_fract_z
 _atom_site_occupancy
  Li  Li0  1  0.94916248  0.89836961  0.18095793  1
  Li  Li1  1  0.49155465  0.37160939  0.41685668  1
  Li  Li2  1  0.59634918  0.40055016  0.70913059  1
  Mo  Mo3  1  0.82321745  0.14675635  0.04923791  1
  O  O4  1  0.94256943  0.64404202  0.59104341  1
  P  P5  1  0.85422051  0.74492586  0.96625334  1
  Sn  Sn6  1  0.66049039  0.94736767  0.07246694  1
  O  O7  1  0.04825769  0.10097449  0.15644291  1
  P  P8  1  0.01870370  0.49211484  0.48162588  1
  O  O9  1  0.97309244  0.60615087  0.02223721  1
  O  O10  1  0.36405694  0.97373587  0.96058267  1
  P  P11  1  0.39812544  0.07735811  0.54828846  1
  P  P12  1  0.52553821  0.96511799  0.57518363  1
  O  O13  1  0.95678228  0.53217918  0.27694145  1
  P  P14  1  0.05215130  0.07587059  0.64141524  1
  O  O15  1  0.38456210  0.97152001  0.04791614  1
  O  O16  1  0.03220685  0.96591431  0.29695594  1
  O  O17  1  0.04750880  0.56114036  0.27274367  1
