# generated using pymatgen
data_Li2CoNiBiP4O11
_symmetry_space_group_name_H-M   'P 1'
_cell_length_a   7.35861169
_cell_length_b   8.38319155
_cell_length_c   5.88823181
_cell_angle_alpha   62.33939060
_cell_angle_beta   82.40721208
_cell_angle_gamma   92.70180132
_symmetry_Int_Tables_number   1
_chemical_formula_structural   Li2CoNiBiP4O11
_chemical_formula_sum   'Li2 Co1 Ni1 Bi1 P4 O11'
_cell_volume   316.45932739
_cell_formula_units_Z   1
loop_
 _symmetry_equiv_pos_site_id
 _symmetry_equiv_pos_as_xyz
  1  'x, y, z'
loop_
 _atom_site_type_symbol
 _atom_site_label
 _atom_site_symmetry_multiplicity
 _atom_site_fract_x
 _atom_site_fract_y
 _atom_site_fract_z
 _atom_site_occupancy
  Li  Li0  1  0.96085054  0.94484526  0.29922414  1
  Li  Li1  1  0.38868061  0.40384695  0.32341474  1
  Bi  Bi2  1  0.62092638  0.36606279  0.74795043  1
  Co  Co3  1  0.85072148  0.11222888  0.03299962  1
  O  O4  1  0.01416937  0.32038158  0.01168507  1
  O  O5  1  0.02563420  0.97658342  0.01728117  1
  O  O6  1  0.95836574  0.57463324  0.69970316  1
  P  P7  1  0.88077337  0.78015971  0.97112685  1
  O  O8  1  0.62827063  0.96841621  0.03925422  1
  O  O9  1  0.02832914  0.08721514  0.13634482  1
  O  O10  1  0.01347648  0.48662496  0.60820460  1
  P  P11  1  0.97980994  0.43349221  0.01210972  1
  O  O12  1  0.25623539  0.98748338  0.96622944  1
  Ni  Ni13  1  0.28978890  0.06660594  0.55510962  1
  P  P14  1  0.58329916  0.98244053  0.59689802  1
  O  O15  1  0.96726412  0.47849593  0.36141065  1
  O  O16  1  0.03941440  0.06754117  0.75187284  1
  P  P17  1  0.35984364  0.98528302  0.02971441  1
  O  O18  1  0.02291935  0.98325253  0.38398597  1
  O  O19  1  0.03709273  0.47095361  0.25295064  1
