# generated using pymatgen
data_Li5MnCoP3O8
_symmetry_space_group_name_H-M   'P 1'
_cell_length_a   6.82465590
_cell_length_b   5.05444313
_cell_length_c   3.40503210
_cell_angle_alpha   46.60933280
_cell_angle_beta   64.25894020
_cell_angle_gamma   87.91248111
_symmetry_Int_Tables_number   1
_chemical_formula_structural   Li5MnCoP3O8
_chemical_formula_sum   'Li5 Mn1 Co1 P3 O8'
_cell_volume   70.46006848
_cell_formula_units_Z   1
loop_
 _symmetry_equiv_pos_site_id
 _symmetry_equiv_pos_as_xyz
  1  'x, y, z'
loop_
 _atom_site_type_symbol
 _atom_site_label
 _atom_site_symmetry_multiplicity
 _atom_site_fract_x
 _atom_site_fract_y
 _atom_site_fract_z
 _atom_site_occupancy
  Li  Li0  1  0.95041829  0.90532053  0.35033730  1
  Li  Li1  1  0.37353116  0.44995528  0.41215950  1
  Li  Li2  1  0.61827332  0.45933571  0.72417641  1
  Li  Li3  1  0.78843421  0.12918396  0.05238911  1
  Co  Co4  1  0.94519734  0.49282569  0.64288634  1
  Li  Li5  1  0.85192513  0.69274396  0.96699715  1
  Mn  Mn6  1  0.53473639  0.95040357  0.05763574  1
  O  O7  1  0.03692282  0.09854489  0.21598507  1
  O  O8  1  0.01818239  0.58455503  0.56133062  1
  P  P9  1  0.97359896  0.44267678  0.02302730  1
  O  O10  1  0.26115796  0.97483617  0.96102506  1
  P  P11  1  0.34361669  0.07476361  0.47961152  1
  O  O12  1  0.51329023  0.96911520  0.60145193  1
  O  O13  1  0.95884812  0.57075596  0.40068677  1
  O  O14  1  0.05595768  0.07474571  0.71909130  1
  O  O15  1  0.34425336  0.97407967  0.04869248  1
  O  O16  1  0.03016964  0.97033465  0.41315621  1
  P  P17  1  0.04791289  0.55119193  0.24483889  1
