# generated using pymatgen
data_Li4MnFe(PO)7
_symmetry_space_group_name_H-M   'P 1'
_cell_length_a   7.16164266
_cell_length_b   8.85448860
_cell_length_c   5.52950409
_cell_angle_alpha   51.15675601
_cell_angle_beta   73.09097620
_cell_angle_gamma   68.65161927
_symmetry_Int_Tables_number   1
_chemical_formula_structural   Li4MnFe(PO)7
_chemical_formula_sum   'Li4 Mn1 Fe1 P7 O7'
_cell_volume   253.41582332
_cell_formula_units_Z   1
loop_
 _symmetry_equiv_pos_site_id
 _symmetry_equiv_pos_as_xyz
  1  'x, y, z'
loop_
 _atom_site_type_symbol
 _atom_site_label
 _atom_site_symmetry_multiplicity
 _atom_site_fract_x
 _atom_site_fract_y
 _atom_site_fract_z
 _atom_site_occupancy
  Li  Li0  1  0.95967269  0.93850446  0.31004971  1
  Li  Li1  1  0.41866601  0.46516126  0.32847348  1
  Li  Li2  1  0.58123046  0.37523282  0.74299079  1
  Li  Li3  1  0.83540565  0.11524411  0.03720584  1
  O  O4  1  0.01560392  0.33183631  0.01384583  1
  O  O5  1  0.02844848  0.97309649  0.01926115  1
  Fe  Fe6  1  0.95459783  0.56572318  0.67858392  1
  O  O7  1  0.87272948  0.79733431  0.96956003  1
  P  P8  1  0.62415975  0.96194971  0.04220812  1
  P  P9  1  0.03158780  0.09139911  0.14744294  1
  P  P10  1  0.01447981  0.50045121  0.60338706  1
  P  P11  1  0.97848916  0.43974099  0.01393159  1
  Mn  Mn12  1  0.24201398  0.98416829  0.96527821  1
  O  O13  1  0.27337039  0.06989332  0.53560150  1
  O  O14  1  0.58698189  0.98048210  0.56789505  1
  P  P15  1  0.96454328  0.49397370  0.37663493  1
  O  O16  1  0.04448814  0.06972092  0.75122333  1
  O  O17  1  0.39316562  0.98180544  0.03302822  1
  P  P18  1  0.02346895  0.97813761  0.37899399  1
  P  P19  1  0.04003286  0.48738199  0.26526612  1
