# generated using pymatgen
data_Li2FeNi2BiSbP5O6
_symmetry_space_group_name_H-M   'P 1'
_cell_length_a   8.65692899
_cell_length_b   5.02397473
_cell_length_c   5.15616476
_cell_angle_alpha   76.44408681
_cell_angle_beta   75.65891379
_cell_angle_gamma   70.31186751
_symmetry_Int_Tables_number   1
_chemical_formula_structural   Li2FeNi2BiSbP5O6
_chemical_formula_sum   'Li2 Fe1 Ni2 Bi1 Sb1 P5 O6'
_cell_volume   201.74349098
_cell_formula_units_Z   1
loop_
 _symmetry_equiv_pos_site_id
 _symmetry_equiv_pos_as_xyz
  1  'x, y, z'
loop_
 _atom_site_type_symbol
 _atom_site_label
 _atom_site_symmetry_multiplicity
 _atom_site_fract_x
 _atom_site_fract_y
 _atom_site_fract_z
 _atom_site_occupancy
  Li  Li0  1  0.95216113  0.90052599  0.24846390  1
  Li  Li1  1  0.48611149  0.37916261  0.39723098  1
  Bi  Bi2  1  0.58348727  0.41167212  0.71451128  1
  Fe  Fe3  1  0.81460810  0.13759948  0.05242369  1
  O  O4  1  0.94520164  0.57848209  0.62238014  1
  Ni  Ni5  1  0.85565448  0.73924750  0.96661103  1
  O  O6  1  0.63867825  0.94807488  0.06316065  1
  Sb  Sb7  1  0.04144838  0.09930101  0.18198767  1
  P  P8  1  0.01865906  0.50795889  0.52146703  1
  O  O9  1  0.97320908  0.53414834  0.02250692  1
  P  P10  1  0.32194304  0.97499532  0.96050185  1
  Ni  Ni11  1  0.37392703  0.07651704  0.56638026  1
  O  O12  1  0.52587092  0.96892059  0.54608566  1
  P  P13  1  0.95706457  0.53922236  0.30909297  1
  P  P14  1  0.05018807  0.07404345  0.66975683  1
  O  O15  1  0.37992975  0.97210789  0.04642683  1
  P  P16  1  0.03131200  0.96884853  0.35080165  1
  O  O17  1  0.04786613  0.53822494  0.28194374  1
