# generated using pymatgen
data_Li4ZrMnP5O7
_symmetry_space_group_name_H-M   'P 1'
_cell_length_a   6.47192971
_cell_length_b   5.96245641
_cell_length_c   7.44754895
_cell_angle_alpha   67.46740001
_cell_angle_beta   77.67872505
_cell_angle_gamma   66.37101761
_symmetry_Int_Tables_number   1
_chemical_formula_structural   Li4ZrMnP5O7
_chemical_formula_sum   'Li4 Zr1 Mn1 P5 O7'
_cell_volume   242.58816674
_cell_formula_units_Z   1
loop_
 _symmetry_equiv_pos_site_id
 _symmetry_equiv_pos_as_xyz
  1  'x, y, z'
loop_
 _atom_site_type_symbol
 _atom_site_label
 _atom_site_symmetry_multiplicity
 _atom_site_fract_x
 _atom_site_fract_y
 _atom_site_fract_z
 _atom_site_occupancy
  Li  Li0  1  0.95053411  0.89130747  0.24384636  1
  Li  Li1  1  0.50440508  0.41884154  0.43387932  1
  Li  Li2  1  0.54139447  0.42870820  0.70700455  1
  Zr  Zr3  1  0.80651414  0.14388205  0.05103527  1
  O  O4  1  0.94306105  0.57375950  0.59013957  1
  O  O5  1  0.85439610  0.73492044  0.96614826  1
  P  P6  1  0.64369899  0.94438255  0.07275743  1
  O  O7  1  0.04270849  0.09807044  0.19362615  1
  Li  Li8  1  0.01847303  0.53458196  0.49410927  1
  O  O9  1  0.97358477  0.56783479  0.02307221  1
  O  O10  1  0.36283824  0.97484523  0.96036297  1
  P  P11  1  0.38309792  0.07785031  0.54584491  1
  P  P12  1  0.51857805  0.96717763  0.50360703  1
  P  P13  1  0.95588726  0.56636071  0.28853953  1
  Mn  Mn14  1  0.05191222  0.07531869  0.63773048  1
  O  O15  1  0.37146905  0.97307575  0.05116502  1
  P  P16  1  0.03239225  0.96765542  0.35004053  1
  O  O17  1  0.04938164  0.55942953  0.31021985  1
