# generated using pymatgen
data_Li3TiP9O7
_symmetry_space_group_name_H-M   'P 1'
_cell_length_a   6.29477447
_cell_length_b   7.86695278
_cell_length_c   8.13642271
_cell_angle_alpha   101.49731645
_cell_angle_beta   83.37203429
_cell_angle_gamma   75.76465516
_symmetry_Int_Tables_number   1
_chemical_formula_structural   Li3TiP9O7
_chemical_formula_sum   'Li3 Ti1 P9 O7'
_cell_volume   376.93375841
_cell_formula_units_Z   1
loop_
 _symmetry_equiv_pos_site_id
 _symmetry_equiv_pos_as_xyz
  1  'x, y, z'
loop_
 _atom_site_type_symbol
 _atom_site_label
 _atom_site_symmetry_multiplicity
 _atom_site_fract_x
 _atom_site_fract_y
 _atom_site_fract_z
 _atom_site_occupancy
  Li  Li0  1  0.95975077  0.91052604  0.27191111  1
  Li  Li1  1  0.41249728  0.40126079  0.42314914  1
  Li  Li2  1  0.62344956  0.45983610  0.73078150  1
  Ti  Ti3  1  0.80430156  0.12158798  0.03784364  1
  P  P4  1  0.01460595  0.40361252  0.01305431  1
  P  P5  1  0.02867064  0.97192943  0.01822430  1
  O  O6  1  0.95491022  0.53793073  0.61642826  1
  P  P7  1  0.87318605  0.69852865  0.97005272  1
  P  P8  1  0.58373755  0.96275312  0.05151911  1
  P  P9  1  0.03275228  0.08788123  0.18649672  1
  O  O10  1  0.01397451  0.58154857  0.54517132  1
  P  P11  1  0.97915137  0.49001491  0.01474583  1
  P  P12  1  0.30126610  0.98636627  0.96526331  1
  O  O13  1  0.34335640  0.06892170  0.48708609  1
  O  O14  1  0.52414531  0.97854650  0.61971664  1
  P  P15  1  0.96504879  0.57579774  0.34241685  1
  O  O16  1  0.04555176  0.06765342  0.68720824  1
  O  O17  1  0.33931458  0.98351777  0.03860524  1
  P  P18  1  0.02474139  0.98086137  0.37412164  1
  O  O19  1  0.03922475  0.57386875  0.24997897  1
