# generated using pymatgen
data_Li4Fe2Co2P5O9
_symmetry_space_group_name_H-M   'P 1'
_cell_length_a   6.57313463
_cell_length_b   10.24065156
_cell_length_c   8.80078151
_cell_angle_alpha   60.95580044
_cell_angle_beta   74.86360300
_cell_angle_gamma   72.56085655
_symmetry_Int_Tables_number   1
_chemical_formula_structural   Li4Fe2Co2P5O9
_chemical_formula_sum   'Li4 Fe2 Co2 P5 O9'
_cell_volume   489.33457629
_cell_formula_units_Z   1
loop_
 _symmetry_equiv_pos_site_id
 _symmetry_equiv_pos_as_xyz
  1  'x, y, z'
loop_
 _atom_site_type_symbol
 _atom_site_label
 _atom_site_symmetry_multiplicity
 _atom_site_fract_x
 _atom_site_fract_y
 _atom_site_fract_z
 _atom_site_occupancy
  Li  Li0  1  0.96750945  0.95050424  0.16787243  1
  Li  Li1  1  0.51586854  0.34382069  0.33042321  1
  Li  Li2  1  0.56817752  0.32855064  0.74152499  1
  Li  Li3  1  0.88278866  0.11196893  0.02444268  1
  Fe  Fe4  1  0.97332114  0.96577400  0.76268119  1
  Co  Co5  1  0.71868545  0.99991465  0.96486193  1
  P  P6  1  0.01089881  0.39369845  0.00481182  1
  P  P7  1  0.02036963  0.98197347  0.01042386  1
  P  P8  1  0.96414000  0.70919782  0.65092283  1
  O  O9  1  0.89069927  0.83122820  0.97263074  1
  O  O10  1  0.71939850  0.97384870  0.03946020  1
  Fe  Fe11  1  0.02812481  0.08139981  0.10080531  1
  P  P12  1  0.01012712  0.41331601  0.54033041  1
  O  O13  1  0.98393232  0.58300626  0.00587060  1
  Co  Co14  1  0.30550846  0.99736851  0.96903408  1
  O  O15  1  0.30648351  0.06335491  0.61984581  1
  O  O16  1  0.60192865  0.98842317  0.53924286  1
  O  O17  1  0.97191894  0.46526000  0.24551150  1
  P  P18  1  0.03242224  0.06267434  0.70638800  1
  O  O19  1  0.40987384  0.99203944  0.02385068  1
  O  O20  1  0.01843072  0.98720944  0.30001602  1
  O  O21  1  0.03055600  0.49186736  0.28155294  1
