# generated using pymatgen
data_Li4VNi(PO3)3
_symmetry_space_group_name_H-M   'P 1'
_cell_length_a   5.74819636
_cell_length_b   5.60897357
_cell_length_c   5.79407494
_cell_angle_alpha   76.53723842
_cell_angle_beta   65.72162212
_cell_angle_gamma   93.66298232
_symmetry_Int_Tables_number   1
_chemical_formula_structural   Li4VNi(PO3)3
_chemical_formula_sum   'Li4 V1 Ni1 P3 O9'
_cell_volume   162.90220427
_cell_formula_units_Z   1
loop_
 _symmetry_equiv_pos_site_id
 _symmetry_equiv_pos_as_xyz
  1  'x, y, z'
loop_
 _atom_site_type_symbol
 _atom_site_label
 _atom_site_symmetry_multiplicity
 _atom_site_fract_x
 _atom_site_fract_y
 _atom_site_fract_z
 _atom_site_occupancy
  Li  Li0  1  0.94230354  0.87420064  0.35251564  1
  Li  Li1  1  0.40092057  0.47531787  0.45600021  1
  Li  Li2  1  0.57020050  0.49089891  0.71250987  1
  Li  Li3  1  0.75712097  0.14413342  0.06234932  1
  V  V4  1  0.93535101  0.46156469  0.60078698  1
  P  P5  1  0.84556174  0.66640890  0.96378458  1
  P  P6  1  0.52696198  0.93843526  0.07239772  1
  O  O7  1  0.04347682  0.10599404  0.25827038  1
  O  O8  1  0.02319326  0.62046504  0.53846341  1
  Ni  Ni9  1  0.96854770  0.46364141  0.03074053  1
  O  O10  1  0.29916114  0.96679664  0.95726323  1
  O  O11  1  0.38134718  0.08183949  0.47982818  1
  P  P12  1  0.47871798  0.96082234  0.55519092  1
  O  O13  1  0.95256501  0.61864287  0.39065930  1
  O  O14  1  0.06425139  0.08104022  0.67475212  1
  O  O15  1  0.33244237  0.96632445  0.06070092  1
  O  O16  1  0.03724935  0.96241838  0.41868046  1
  O  O17  1  0.05771441  0.58265501  0.28770676  1
