# generated using pymatgen
data_Li2Mn2FeSb(PO3)3
_symmetry_space_group_name_H-M   'P 1'
_cell_length_a   7.02348328
_cell_length_b   5.56898590
_cell_length_c   8.98239916
_cell_angle_alpha   87.88783625
_cell_angle_beta   73.41489132
_cell_angle_gamma   90.38707595
_symmetry_Int_Tables_number   1
_chemical_formula_structural   Li2Mn2FeSb(PO3)3
_chemical_formula_sum   'Li2 Mn2 Fe1 Sb1 P3 O9'
_cell_volume   336.43451596
_cell_formula_units_Z   1
loop_
 _symmetry_equiv_pos_site_id
 _symmetry_equiv_pos_as_xyz
  1  'x, y, z'
loop_
 _atom_site_type_symbol
 _atom_site_label
 _atom_site_symmetry_multiplicity
 _atom_site_fract_x
 _atom_site_fract_y
 _atom_site_fract_z
 _atom_site_occupancy
  Li  Li0  1  0.94903493  0.89038157  0.34629250  1
  Li  Li1  1  0.37660503  0.47016734  0.43552479  1
  Fe  Fe2  1  0.61416024  0.49189964  0.72361457  1
  P  P3  1  0.76533520  0.13278303  0.05412203  1
  Sb  Sb4  1  0.94247127  0.47590846  0.60998702  1
  Mn  Mn5  1  0.85355020  0.67327511  0.96616918  1
  O  O6  1  0.53187656  0.94856936  0.06139549  1
  Mn  Mn7  1  0.03879137  0.09999482  0.23426755  1
  O  O8  1  0.01931240  0.61703414  0.55158633  1
  P  P9  1  0.97208565  0.45607314  0.02533201  1
  O  O10  1  0.27893144  0.97265190  0.96013063  1
  O  O11  1  0.35705814  0.07753934  0.45416185  1
  O  O12  1  0.50691009  0.96614695  0.59178436  1
  O  O13  1  0.95659852  0.59406924  0.39768872  1
  O  O14  1  0.05878361  0.07565419  0.70163465  1
  O  O15  1  0.34229141  0.97118062  0.05197661  1
  O  O16  1  0.03239679  0.97070950  0.41629118  1
  P  P17  1  0.05074665  0.57204008  0.25890625  1
