# generated using pymatgen
data_Li2FeP4O3
_symmetry_space_group_name_H-M   'P 1'
_cell_length_a   3.71692975
_cell_length_b   7.64388454
_cell_length_c   7.62124327
_cell_angle_alpha   72.53545336
_cell_angle_beta   87.00500285
_cell_angle_gamma   78.23065278
_symmetry_Int_Tables_number   1
_chemical_formula_structural   Li2FeP4O3
_chemical_formula_sum   'Li4 Fe2 P8 O6'
_cell_volume   202.19981380
_cell_formula_units_Z   2
loop_
 _symmetry_equiv_pos_site_id
 _symmetry_equiv_pos_as_xyz
  1  'x, y, z'
loop_
 _atom_site_type_symbol
 _atom_site_label
 _atom_site_symmetry_multiplicity
 _atom_site_fract_x
 _atom_site_fract_y
 _atom_site_fract_z
 _atom_site_occupancy
  Li  Li0  1  0.96494150  0.93824553  0.30514762  1
  Li  Li1  1  0.42554697  0.45348305  0.34842914  1
  Li  Li2  1  0.59695214  0.36613637  0.73986751  1
  Fe  Fe3  1  0.84802109  0.11324187  0.03316674  1
  P  P4  1  0.01226655  0.35538179  0.00805215  1
  P  P5  1  0.02297994  0.98142815  0.01392438  1
  O  O6  1  0.95997453  0.55565017  0.68970805  1
  O  O7  1  0.88154149  0.77219570  0.97254956  1
  P  P8  1  0.64746457  0.96812332  0.04121887  1
  Fe  Fe9  1  0.02613346  0.08422964  0.14155512  1
  P  P10  1  0.01146340  0.47153425  0.56554037  1
  O  O11  1  0.98275083  0.44695932  0.01002711  1
  Li  Li12  1  0.29388374  0.99040520  0.96811658  1
  P  P13  1  0.33221060  0.06450096  0.56293666  1
  P  P14  1  0.57150280  0.98699111  0.52811444  1
  O  O15  1  0.97012055  0.50845838  0.32572863  1
  O  O16  1  0.03559876  0.06508329  0.70848829  1
  O  O17  1  0.38814369  0.98956674  0.02892066  1
  P  P18  1  0.02009505  0.98869365  0.36314705  1
  P  P19  1  0.03521207  0.49498504  0.25995427  1
