# generated using pymatgen
data_Li3MnCrP6O7
_symmetry_space_group_name_H-M   'P 1'
_cell_length_a   4.34698286
_cell_length_b   4.64349929
_cell_length_c   4.85989682
_cell_angle_alpha   83.30113237
_cell_angle_beta   101.98239269
_cell_angle_gamma   107.32774755
_symmetry_Int_Tables_number   1
_chemical_formula_structural   Li3MnCrP6O7
_chemical_formula_sum   'Li3 Mn1 Cr1 P6 O7'
_cell_volume   91.44765113
_cell_formula_units_Z   1
loop_
 _symmetry_equiv_pos_site_id
 _symmetry_equiv_pos_as_xyz
  1  'x, y, z'
loop_
 _atom_site_type_symbol
 _atom_site_label
 _atom_site_symmetry_multiplicity
 _atom_site_fract_x
 _atom_site_fract_y
 _atom_site_fract_z
 _atom_site_occupancy
  Li  Li0  1  0.93980491  0.82975787  0.30152950  1
  Li  Li1  1  0.40458426  0.45718771  0.54459131  1
  Li  Li2  1  0.60140580  0.58267123  0.69996077  1
  Cr  Cr3  1  0.70372075  0.15704836  0.07262868  1
  P  P4  1  0.92875570  0.45309570  0.52952111  1
  O  O5  1  0.84056526  0.58674461  0.96209979  1
  Mn  Mn6  1  0.50022018  0.93601817  0.08892962  1
  P  P7  1  0.04946787  0.10956682  0.30761158  1
  P  P8  1  0.02447425  0.68153161  0.48621133  1
  O  O9  1  0.96540946  0.53249949  0.03613492  1
  O  O10  1  0.36535460  0.96455616  0.95427281  1
  O  O11  1  0.41704121  0.08728318  0.45975429  1
  P  P12  1  0.43059817  0.95146620  0.58721536  1
  P  P13  1  0.94825071  0.66559172  0.38235661  1
  O  O14  1  0.07294653  0.08232467  0.61731470  1
  P  P15  1  0.29944605  0.96016026  0.07287724  1
  O  O16  1  0.04134554  0.96063739  0.43547568  1
  O  O17  1  0.06173168  0.66452181  0.27786210  1
