# generated using pymatgen
data_Li4CrMoPO13
_symmetry_space_group_name_H-M   'P 1'
_cell_length_a   5.99722662
_cell_length_b   7.31767824
_cell_length_c   7.06750807
_cell_angle_alpha   73.93853053
_cell_angle_beta   66.32678000
_cell_angle_gamma   79.74871746
_symmetry_Int_Tables_number   1
_chemical_formula_structural   Li4CrMoPO13
_chemical_formula_sum   'Li4 Cr1 Mo1 P1 O13'
_cell_volume   272.18542346
_cell_formula_units_Z   1
loop_
 _symmetry_equiv_pos_site_id
 _symmetry_equiv_pos_as_xyz
  1  'x, y, z'
loop_
 _atom_site_type_symbol
 _atom_site_label
 _atom_site_symmetry_multiplicity
 _atom_site_fract_x
 _atom_site_fract_y
 _atom_site_fract_z
 _atom_site_occupancy
  Li  Li0  1  0.95925355  0.90749544  0.31132916  1
  Li  Li1  1  0.36069402  0.40964276  0.42436251  1
  Mo  Mo2  1  0.64363575  0.48349863  0.73510826  1
  Li  Li3  1  0.79570198  0.11804366  0.03795569  1
  Cr  Cr4  1  0.01444416  0.37704578  0.01354598  1
  Li  Li5  1  0.02928852  0.97262460  0.01844205  1
  O  O6  1  0.95480704  0.51182151  0.61008930  1
  O  O7  1  0.87711334  0.67570597  0.97015804  1
  O  O8  1  0.53384924  0.96478730  0.04667411  1
  O  O9  1  0.03160980  0.08846185  0.20230332  1
  O  O10  1  0.01423639  0.61449462  0.56351417  1
  O  O11  1  0.97887129  0.45413399  0.01534262  1
  O  O12  1  0.25130081  0.98616868  0.96572423  1
  O  O13  1  0.32105336  0.06870718  0.46234298  1
  P  P14  1  0.50896519  0.97899485  0.62039304  1
  O  O15  1  0.96587628  0.59019989  0.39061016  1
  O  O16  1  0.04829400  0.06832275  0.73055297  1
  O  O17  1  0.30730784  0.98456967  0.04039141  1
  O  O18  1  0.02497772  0.98115933  0.40086567  1
  O  O19  1  0.03920556  0.59111238  0.25259602  1
