# generated using pymatgen
data_Li3MnCoNiSnP3O8
_symmetry_space_group_name_H-M   'P 1'
_cell_length_a   5.02939205
_cell_length_b   5.77402112
_cell_length_c   6.67646445
_cell_angle_alpha   84.66977983
_cell_angle_beta   91.66805891
_cell_angle_gamma   95.78131230
_symmetry_Int_Tables_number   1
_chemical_formula_structural   Li3MnCoNiSnP3O8
_chemical_formula_sum   'Li3 Mn1 Co1 Ni1 Sn1 P3 O8'
_cell_volume   192.02483468
_cell_formula_units_Z   1
loop_
 _symmetry_equiv_pos_site_id
 _symmetry_equiv_pos_as_xyz
  1  'x, y, z'
loop_
 _atom_site_type_symbol
 _atom_site_label
 _atom_site_symmetry_multiplicity
 _atom_site_fract_x
 _atom_site_fract_y
 _atom_site_fract_z
 _atom_site_occupancy
  Li  Li0  1  0.94999593  0.83378267  0.33058265  1
  Li  Li1  1  0.35723594  0.46160573  0.56035250  1
  Li  Li2  1  0.65469021  0.60919911  0.71074146  1
  Mn  Mn3  1  0.70063895  0.13964041  0.05555501  1
  Sn  Sn4  1  0.94097030  0.41058639  0.51979738  1
  P  P5  1  0.85463834  0.53080195  0.96728319  1
  P  P6  1  0.44097006  0.94981873  0.07291623  1
  O  O7  1  0.04083186  0.09608287  0.32164219  1
  O  O8  1  0.01817970  0.73171318  0.48182327  1
  Co  Co9  1  0.97437471  0.49482346  0.02586550  1
  O  O10  1  0.32997662  0.97588181  0.96120226  1
  Ni  Ni11  1  0.43245101  0.07678577  0.37112346  1
  P  P12  1  0.40472770  0.96683764  0.63875479  1
  O  O13  1  0.95787597  0.71064603  0.41170111  1
  O  O14  1  0.06390919  0.07336529  0.64223462  1
  O  O15  1  0.28037402  0.97433162  0.06338828  1
  O  O16  1  0.03327641  0.97075081  0.41294554  1
  O  O17  1  0.04984674  0.69487786  0.23218586  1
