# generated using pymatgen
data_Li5CoNi2P2PbO10
_symmetry_space_group_name_H-M   'P 1'
_cell_length_a   10.52103607
_cell_length_b   9.98338294
_cell_length_c   8.09001371
_cell_angle_alpha   79.18076974
_cell_angle_beta   80.94483572
_cell_angle_gamma   71.84577012
_symmetry_Int_Tables_number   1
_chemical_formula_structural   Li5CoNi2P2PbO10
_chemical_formula_sum   'Li5 Co1 Ni2 P2 Pb1 O10'
_cell_volume   788.62207237
_cell_formula_units_Z   1
loop_
 _symmetry_equiv_pos_site_id
 _symmetry_equiv_pos_as_xyz
  1  'x, y, z'
loop_
 _atom_site_type_symbol
 _atom_site_label
 _atom_site_symmetry_multiplicity
 _atom_site_fract_x
 _atom_site_fract_y
 _atom_site_fract_z
 _atom_site_occupancy
  Li  Li0  1  0.96717161  0.95726943  0.21506913  1
  Li  Li1  1  0.49297842  0.41979921  0.31489989  1
  Li  Li2  1  0.52306217  0.31881714  0.74852127  1
  Li  Li3  1  0.88249046  0.10817218  0.02567137  1
  Li  Li4  1  0.72011071  0.00015533  0.96520984  1
  P  P5  1  0.01119626  0.37033010  0.00526092  1
  O  O6  1  0.02024254  0.98602974  0.01113531  1
  Ni  Ni7  1  0.96351612  0.65055174  0.68732530  1
  Co  Co8  1  0.88851601  0.84889680  0.97299093  1
  Pb  Pb9  1  0.69217986  0.97332746  0.03578651  1
  O  O10  1  0.02605412  0.08118179  0.10419267  1
  P  P11  1  0.01011377  0.43234605  0.57452184  1
  O  O12  1  0.98402601  0.51306432  0.00529932  1
  O  O13  1  0.28061503  0.99623889  0.96946883  1
  O  O14  1  0.28620631  0.06325252  0.60568672  1
  Ni  Ni15  1  0.60383379  0.99240202  0.51797742  1
  O  O16  1  0.97249091  0.46470922  0.28854293  1
  O  O17  1  0.03298193  0.06336876  0.73181099  1
  O  O18  1  0.40934899  0.99301314  0.02279916  1
  O  O19  1  0.01807205  0.98875153  0.32251310  1
  O  O20  1  0.03092178  0.46985495  0.29086041  1
