# generated using pymatgen
data_Li4Mn(P2O3)3
_symmetry_space_group_name_H-M   'P 1'
_cell_length_a   12.45924590
_cell_length_b   7.65601372
_cell_length_c   6.79540883
_cell_angle_alpha   98.90914918
_cell_angle_beta   67.86723051
_cell_angle_gamma   93.63808431
_symmetry_Int_Tables_number   1
_chemical_formula_structural   Li4Mn(P2O3)3
_chemical_formula_sum   'Li4 Mn1 P6 O9'
_cell_volume   593.18427166
_cell_formula_units_Z   1
loop_
 _symmetry_equiv_pos_site_id
 _symmetry_equiv_pos_as_xyz
  1  'x, y, z'
loop_
 _atom_site_type_symbol
 _atom_site_label
 _atom_site_symmetry_multiplicity
 _atom_site_fract_x
 _atom_site_fract_y
 _atom_site_fract_z
 _atom_site_occupancy
  Li  Li0  1  0.96305811  0.94800448  0.25961196  1
  Li  Li1  1  0.45879266  0.39463821  0.32712916  1
  Li  Li2  1  0.57148147  0.34822449  0.74015194  1
  Li  Li3  1  0.85743004  0.11242750  0.03464287  1
  O  O4  1  0.01349055  0.34699002  0.00979499  1
  O  O5  1  0.02527796  0.97572923  0.01584499  1
  P  P6  1  0.95913678  0.61749417  0.68556315  1
  P  P7  1  0.87771016  0.80757433  0.97110069  1
  P  P8  1  0.65728742  0.96574193  0.03980634  1
  O  O9  1  0.02921414  0.08717901  0.12552735  1
  O  O10  1  0.01272019  0.44535613  0.58082193  1
  Mn  Mn11  1  0.98046005  0.49354792  0.01105713  1
  P  P12  1  0.25768405  0.98982573  0.96703517  1
  O  O13  1  0.28586304  0.06608046  0.57753420  1
  P  P14  1  0.59231740  0.98461717  0.54346353  1
  P  P15  1  0.96808910  0.47944409  0.30781332  1
  O  O16  1  0.03807972  0.06614727  0.73640156  1
  O  O17  1  0.40570438  0.98566437  0.02949649  1
  O  O18  1  0.02120675  0.98380548  0.35409760  1
  O  O19  1  0.03557719  0.48073983  0.27321035  1
