# generated using pymatgen
data_Li3ScFe(P2O3)3
_symmetry_space_group_name_H-M   'P 1'
_cell_length_a   7.36022386
_cell_length_b   8.54492002
_cell_length_c   6.65265231
_cell_angle_alpha   86.99508535
_cell_angle_beta   73.01872954
_cell_angle_gamma   78.91906633
_symmetry_Int_Tables_number   1
_chemical_formula_structural   Li3ScFe(P2O3)3
_chemical_formula_sum   'Li3 Sc1 Fe1 P6 O9'
_cell_volume   392.69650226
_cell_formula_units_Z   1
loop_
 _symmetry_equiv_pos_site_id
 _symmetry_equiv_pos_as_xyz
  1  'x, y, z'
loop_
 _atom_site_type_symbol
 _atom_site_label
 _atom_site_symmetry_multiplicity
 _atom_site_fract_x
 _atom_site_fract_y
 _atom_site_fract_z
 _atom_site_occupancy
  Li  Li0  1  0.96384901  0.95723963  0.31220338  1
  Li  Li1  1  0.45013803  0.44371054  0.29261100  1
  Li  Li2  1  0.55522561  0.33011138  0.75074142  1
  Sc  Sc3  1  0.86642164  0.10778660  0.03025361  1
  Fe  Fe4  1  0.01276443  0.32077596  0.00867167  1
  P  P5  1  0.02330980  0.98057204  0.01504361  1
  P  P6  1  0.96147561  0.58186871  0.71455252  1
  P  P7  1  0.88027143  0.83289540  0.97190666  1
  O  O8  1  0.66561115  0.96680808  0.03504788  1
  P  P9  1  0.02526145  0.08490878  0.11900247  1
  O  O10  1  0.01159424  0.43941060  0.61474603  1
  O  O11  1  0.98174173  0.43075946  0.00948812  1
  O  O12  1  0.25180623  0.99193275  0.96806586  1
  O  O13  1  0.26801628  0.06504299  0.59913814  1
  O  O14  1  0.61867106  0.98734558  0.50780737  1
  P  P15  1  0.96921259  0.45323423  0.32787195  1
  P  P16  1  0.03494557  0.06556607  0.74384969  1
  O  O17  1  0.40902501  0.98822409  0.02689384  1
  O  O18  1  0.02014708  0.98652238  0.36485207  1
  O  O19  1  0.03408028  0.44336832  0.27099815  1
