# generated using pymatgen
data_Li3SnP5O9
_symmetry_space_group_name_H-M   'P 1'
_cell_length_a   5.77422623
_cell_length_b   7.02327547
_cell_length_c   5.82344498
_cell_angle_alpha   109.14825923
_cell_angle_beta   77.19126223
_cell_angle_gamma   71.83091481
_symmetry_Int_Tables_number   1
_chemical_formula_structural   Li3SnP5O9
_chemical_formula_sum   'Li3 Sn1 P5 O9'
_cell_volume   197.68383198
_cell_formula_units_Z   1
loop_
 _symmetry_equiv_pos_site_id
 _symmetry_equiv_pos_as_xyz
  1  'x, y, z'
loop_
 _atom_site_type_symbol
 _atom_site_label
 _atom_site_symmetry_multiplicity
 _atom_site_fract_x
 _atom_site_fract_y
 _atom_site_fract_z
 _atom_site_occupancy
  Li  Li0  1  0.94670457  0.90511525  0.38491040  1
  Li  Li1  1  0.36565906  0.47113580  0.40147477  1
  Li  Li2  1  0.60538429  0.46047959  0.71892279  1
  P  P3  1  0.77754563  0.13375428  0.05589449  1
  P  P4  1  0.94022173  0.48116207  0.64664304  1
  P  P5  1  0.85188353  0.71333981  0.96515697  1
  Sn  Sn6  1  0.55073106  0.94621855  0.05923639  1
  O  O7  1  0.03826506  0.10227048  0.22214304  1
  O  O8  1  0.02083034  0.58235937  0.59196407  1
  P  P9  1  0.97022521  0.41803062  0.02726768  1
  O  O10  1  0.26298273  0.97118324  0.95890504  1
  O  O11  1  0.31116092  0.07801744  0.48609948  1
  P  P12  1  0.53083748  0.96406430  0.58924550  1
  O  O13  1  0.95428914  0.56084865  0.41446924  1
  O  O14  1  0.05895761  0.07868202  0.72669280  1
  O  O15  1  0.33839378  0.96853864  0.05169162  1
  O  O16  1  0.03309239  0.96884471  0.44810352  1
  O  O17  1  0.05382084  0.52909607  0.27100325  1
