# generated using pymatgen
data_Li4MnFe2Ni(PO)6
_symmetry_space_group_name_H-M   'P 1'
_cell_length_a   4.49003009
_cell_length_b   8.96469803
_cell_length_c   7.25689787
_cell_angle_alpha   59.26412198
_cell_angle_beta   78.62242903
_cell_angle_gamma   71.84528650
_symmetry_Int_Tables_number   1
_chemical_formula_structural   Li4MnFe2Ni(PO)6
_chemical_formula_sum   'Li4 Mn1 Fe2 Ni1 P6 O6'
_cell_volume   238.31448458
_cell_formula_units_Z   1
loop_
 _symmetry_equiv_pos_site_id
 _symmetry_equiv_pos_as_xyz
  1  'x, y, z'
loop_
 _atom_site_type_symbol
 _atom_site_label
 _atom_site_symmetry_multiplicity
 _atom_site_fract_x
 _atom_site_fract_y
 _atom_site_fract_z
 _atom_site_occupancy
  Li  Li0  1  0.95660490  0.90089393  0.37105894  1
  Li  Li1  1  0.36608970  0.47240120  0.42537743  1
  Li  Li2  1  0.62800932  0.48409563  0.73245496  1
  Li  Li3  1  0.78581446  0.12159470  0.04447106  1
  P  P4  1  0.01568005  0.36356491  0.01597811  1
  O  O5  1  0.03183620  0.96945333  0.02090093  1
  P  P6  1  0.95211536  0.45874277  0.63375998  1
  Fe  Fe7  1  0.86459541  0.68278790  0.96942824  1
  O  O8  1  0.52261770  0.95876527  0.04871116  1
  P  P9  1  0.03072862  0.09158174  0.22738779  1
  P  P10  1  0.01531055  0.61915660  0.57363296  1
  Ni  Ni11  1  0.97746599  0.42432690  0.01860528  1
  Fe  Fe12  1  0.27297568  0.98386896  0.96406513  1
  O  O13  1  0.34055755  0.07074960  0.48276329  1
  O  O14  1  0.49313414  0.97635233  0.56623971  1
  Mn  Mn15  1  0.96316463  0.59572721  0.40565574  1
  P  P16  1  0.04933682  0.06980371  0.71054035  1
  O  O17  1  0.32675099  0.97994345  0.04390115  1
  O  O18  1  0.02610469  0.97956711  0.42675975  1
  P  P19  1  0.04367680  0.56964147  0.24241686  1
