# generated using pymatgen
data_Li4MnFe(PO3)3
_symmetry_space_group_name_H-M   'P 1'
_cell_length_a   5.88213473
_cell_length_b   6.43832702
_cell_length_c   8.97258793
_cell_angle_alpha   82.47371144
_cell_angle_beta   53.27429064
_cell_angle_gamma   57.29093552
_symmetry_Int_Tables_number   1
_chemical_formula_structural   Li4MnFe(PO3)3
_chemical_formula_sum   'Li4 Mn1 Fe1 P3 O9'
_cell_volume   219.66652315
_cell_formula_units_Z   1
loop_
 _symmetry_equiv_pos_site_id
 _symmetry_equiv_pos_as_xyz
  1  'x, y, z'
loop_
 _atom_site_type_symbol
 _atom_site_label
 _atom_site_symmetry_multiplicity
 _atom_site_fract_x
 _atom_site_fract_y
 _atom_site_fract_z
 _atom_site_occupancy
  Li  Li0  1  0.95138264  0.90075082  0.34413043  1
  Li  Li1  1  0.40281498  0.44456232  0.41713282  1
  Li  Li2  1  0.58197820  0.44992387  0.72624087  1
  Li  Li3  1  0.79180956  0.13047671  0.05511241  1
  Fe  Fe4  1  0.94453925  0.49739310  0.64199406  1
  P  P5  1  0.85832626  0.72458750  0.96695012  1
  O  O6  1  0.57524818  0.94873363  0.05829045  1
  O  O7  1  0.03644137  0.09906375  0.20797262  1
  P  P8  1  0.01866394  0.56890321  0.56111968  1
  O  O9  1  0.97271305  0.45112661  0.02348883  1
  O  O10  1  0.30139768  0.97640973  0.96072984  1
  O  O11  1  0.33170468  0.07568248  0.52191371  1
  Mn  Mn12  1  0.53305340  0.96846288  0.56994361  1
  O  O13  1  0.95823491  0.57539636  0.37149912  1
  O  O14  1  0.05370791  0.07450327  0.68536496  1
  O  O15  1  0.33924574  0.97199655  0.04765708  1
  P  P16  1  0.03081449  0.97119910  0.43073711  1
  O  O17  1  0.04939061  0.54451376  0.28028819  1
