# generated using pymatgen
data_Li3V(PO3)4
_symmetry_space_group_name_H-M   'P 1'
_cell_length_a   5.69550149
_cell_length_b   8.23900131
_cell_length_c   7.22756880
_cell_angle_alpha   81.12320839
_cell_angle_beta   86.06781465
_cell_angle_gamma   79.55201282
_symmetry_Int_Tables_number   1
_chemical_formula_structural   Li3V(PO3)4
_chemical_formula_sum   'Li3 V1 P4 O12'
_cell_volume   329.24960913
_cell_formula_units_Z   1
loop_
 _symmetry_equiv_pos_site_id
 _symmetry_equiv_pos_as_xyz
  1  'x, y, z'
loop_
 _atom_site_type_symbol
 _atom_site_label
 _atom_site_symmetry_multiplicity
 _atom_site_fract_x
 _atom_site_fract_y
 _atom_site_fract_z
 _atom_site_occupancy
  Li  Li0  1  0.95886612  0.93469989  0.32630855  1
  Li  Li1  1  0.38464561  0.45260423  0.35467824  1
  Li  Li2  1  0.62416267  0.40716627  0.74494600  1
  V  V3  1  0.82484323  0.11503021  0.03578231  1
  P  P4  1  0.01453163  0.33400592  0.01228210  1
  O  O5  1  0.02725499  0.97311020  0.01671387  1
  O  O6  1  0.95738977  0.54277718  0.66569042  1
  P  P7  1  0.87308931  0.75600821  0.97063547  1
  O  O8  1  0.59181488  0.96514088  0.04210319  1
  O  O9  1  0.02913926  0.08900338  0.16210829  1
  O  O10  1  0.01335690  0.53041148  0.59230638  1
  P  P11  1  0.97945738  0.43753159  0.01355551  1
  O  O12  1  0.23911799  0.98688835  0.96621549  1
  O  O13  1  0.28197122  0.06695094  0.49940354  1
  O  O14  1  0.58123028  0.98056388  0.58223021  1
  O  O15  1  0.96717864  0.51319587  0.37572286  1
  O  O16  1  0.04347182  0.06768672  0.76040238  1
  P  P17  1  0.35910234  0.98438644  0.03372478  1
  O  O18  1  0.02207978  0.98276430  0.38466674  1
  O  O19  1  0.03732375  0.51930982  0.24405295  1
