# generated using pymatgen
data_Li3P7O10
_symmetry_space_group_name_H-M   'P 1'
_cell_length_a   5.47449189
_cell_length_b   7.55567090
_cell_length_c   7.75245362
_cell_angle_alpha   77.78443793
_cell_angle_beta   99.41813017
_cell_angle_gamma   89.25187311
_symmetry_Int_Tables_number   1
_chemical_formula_structural   Li3P7O10
_chemical_formula_sum   'Li3 P7 O10'
_cell_volume   308.80498068
_cell_formula_units_Z   1
loop_
 _symmetry_equiv_pos_site_id
 _symmetry_equiv_pos_as_xyz
  1  'x, y, z'
loop_
 _atom_site_type_symbol
 _atom_site_label
 _atom_site_symmetry_multiplicity
 _atom_site_fract_x
 _atom_site_fract_y
 _atom_site_fract_z
 _atom_site_occupancy
  Li  Li0  1  0.96006650  0.91568476  0.32185307  1
  Li  Li1  1  0.39295545  0.43252373  0.41667604  1
  Li  Li2  1  0.65368783  0.46919551  0.73414874  1
  P  P3  1  0.79430616  0.11568769  0.04127261  1
  O  O4  1  0.01461183  0.36434215  0.01208645  1
  P  P5  1  0.02890314  0.97394645  0.01872140  1
  O  O6  1  0.95541573  0.48805231  0.64257509  1
  P  P7  1  0.87300295  0.68741685  0.97080064  1
  O  O8  1  0.54041016  0.96274221  0.04736928  1
  O  O9  1  0.03009420  0.08868062  0.19969821  1
  P  P10  1  0.01334809  0.58809698  0.56062829  1
  P  P11  1  0.97975892  0.43119887  0.01453339  1
  O  O12  1  0.27420840  0.98733580  0.96565354  1
  O  O13  1  0.33371723  0.06802561  0.48774546  1
  O  O14  1  0.51930058  0.98238087  0.62202471  1
  P  P15  1  0.96617806  0.56811929  0.38442633  1
  P  P16  1  0.04489362  0.06702192  0.70938027  1
  O  O17  1  0.34271124  0.98395938  0.03796116  1
  O  O18  1  0.02370254  0.98415852  0.40035036  1
  O  O19  1  0.03837652  0.57223040  0.22953321  1
