# generated using pymatgen
data_Li3CrNi(P4O3)2
_symmetry_space_group_name_H-M   'P 1'
_cell_length_a   6.25019114
_cell_length_b   5.75795971
_cell_length_c   5.54890279
_cell_angle_alpha   83.59907335
_cell_angle_beta   98.53874758
_cell_angle_gamma   67.24113729
_symmetry_Int_Tables_number   1
_chemical_formula_structural   Li3CrNi(P4O3)2
_chemical_formula_sum   'Li3 Cr1 Ni1 P8 O6'
_cell_volume   178.95493129
_cell_formula_units_Z   1
loop_
 _symmetry_equiv_pos_site_id
 _symmetry_equiv_pos_as_xyz
  1  'x, y, z'
loop_
 _atom_site_type_symbol
 _atom_site_label
 _atom_site_symmetry_multiplicity
 _atom_site_fract_x
 _atom_site_fract_y
 _atom_site_fract_z
 _atom_site_occupancy
  Li  Li0  1  0.95526516  0.93937534  0.37807250  1
  Li  Li1  1  0.38408402  0.44264394  0.31260258  1
  Li  Li2  1  0.63230073  0.35881564  0.73916042  1
  Cr  Cr3  1  0.84678781  0.11883600  0.04436943  1
  O  O4  1  0.03187239  0.96984255  0.02306225  1
  P  P5  1  0.95153117  0.52932405  0.71302360  1
  P  P6  1  0.86651462  0.79070091  0.96832514  1
  O  O7  1  0.62706161  0.95561731  0.04248774  1
  P  P8  1  0.03103133  0.09411799  0.15232608  1
  P  P9  1  0.01646537  0.48025846  0.62421715  1
  P  P10  1  0.97530711  0.38909331  0.01785038  1
  O  O11  1  0.24515909  0.98140776  0.96296132  1
  O  O12  1  0.28205568  0.07024798  0.56364268  1
  P  P13  1  0.59289402  0.97568154  0.55313194  1
  O  O14  1  0.96192670  0.47670677  0.38343462  1
  O  O15  1  0.04493831  0.07258822  0.75999051  1
  Ni  Ni16  1  0.38237074  0.97845906  0.03748531  1
  P  P17  1  0.02586405  0.97848237  0.41827548  1
  P  P18  1  0.04509640  0.44775069  0.26446387  1
