# generated using pymatgen
data_Li2V2NiBiP7O6
_symmetry_space_group_name_H-M   'P 1'
_cell_length_a   7.70670615
_cell_length_b   5.93695625
_cell_length_c   4.57808024
_cell_angle_alpha   87.95902332
_cell_angle_beta   78.07763376
_cell_angle_gamma   73.44269727
_symmetry_Int_Tables_number   1
_chemical_formula_structural   Li2V2NiBiP7O6
_chemical_formula_sum   'Li2 V2 Ni1 Bi1 P7 O6'
_cell_volume   196.39010187
_cell_formula_units_Z   1
loop_
 _symmetry_equiv_pos_site_id
 _symmetry_equiv_pos_as_xyz
  1  'x, y, z'
loop_
 _atom_site_type_symbol
 _atom_site_label
 _atom_site_symmetry_multiplicity
 _atom_site_fract_x
 _atom_site_fract_y
 _atom_site_fract_z
 _atom_site_occupancy
  Li  Li0  1  0.95432913  0.89950174  0.30832255  1
  Li  Li1  1  0.40634078  0.42700815  0.44317880  1
  Bi  Bi2  1  0.60290617  0.48515722  0.72419202  1
  V  V3  1  0.78307933  0.12698200  0.04911070  1
  V  V4  1  0.03287355  0.96394670  0.02278752  1
  Ni  Ni5  1  0.94995624  0.50327051  0.60645753  1
  O  O6  1  0.86533922  0.67597407  0.96845436  1
  P  P7  1  0.54058158  0.95656806  0.05796906  1
  O  O8  1  0.03499048  0.09459175  0.22525892  1
  O  O9  1  0.01678854  0.60662001  0.54869401  1
  P  P10  1  0.97583896  0.48809674  0.02007680  1
  P  P11  1  0.28729072  0.98211902  0.96261263  1
  P  P12  1  0.34215450  0.07338727  0.49565229  1
  O  O13  1  0.49134111  0.97379172  0.57727462  1
  P  P14  1  0.96157223  0.60157186  0.36844930  1
  O  O15  1  0.05257304  0.07119767  0.70093107  1
  P  P16  1  0.33460999  0.97801107  0.04717333  1
  O  O17  1  0.02793486  0.97578019  0.41872090  1
  P  P18  1  0.04447682  0.59562844  0.26490241  1
