# generated using pymatgen
data_Li3MnCrFeBiP4WO8
_symmetry_space_group_name_H-M   'P 1'
_cell_length_a   2.90787591
_cell_length_b   6.16144147
_cell_length_c   8.32393433
_cell_angle_alpha   73.97433704
_cell_angle_beta   114.19656455
_cell_angle_gamma   96.29122030
_symmetry_Int_Tables_number   1
_chemical_formula_structural   Li3MnCrFeBiP4WO8
_chemical_formula_sum   'Li3 Mn1 Cr1 Fe1 Bi1 P4 W1 O8'
_cell_volume   130.74731806
_cell_formula_units_Z   1
loop_
 _symmetry_equiv_pos_site_id
 _symmetry_equiv_pos_as_xyz
  1  'x, y, z'
loop_
 _atom_site_type_symbol
 _atom_site_label
 _atom_site_symmetry_multiplicity
 _atom_site_fract_x
 _atom_site_fract_y
 _atom_site_fract_z
 _atom_site_occupancy
  Li  Li0  1  0.96201915  0.94551742  0.30693617  1
  Li  Li1  1  0.39817971  0.39230892  0.33187738  1
  Li  Li2  1  0.65638244  0.37749955  0.73966771  1
  Bi  Bi3  1  0.84705251  0.11217483  0.03460243  1
  O  O4  1  0.01348433  0.32418394  0.01102503  1
  Mn  Mn5  1  0.02499842  0.97632295  0.01581804  1
  Cr  Cr6  1  0.95756024  0.58669859  0.68413299  1
  Fe  Fe7  1  0.87816864  0.77687687  0.97119582  1
  O  O8  1  0.63214773  0.96744782  0.03877541  1
  O  O9  1  0.02955770  0.08622502  0.13827841  1
  O  O10  1  0.01273713  0.49241206  0.59158355  1
  P  P11  1  0.98012769  0.45236662  0.01196338  1
  O  O12  1  0.24534488  0.98904991  0.96711820  1
  P  P13  1  0.29204154  0.06500252  0.54093492  1
  O  O14  1  0.58506221  0.98214483  0.59634554  1
  P  P15  1  0.96835643  0.48525691  0.36163473  1
  P  P16  1  0.03912375  0.06644069  0.75234514  1
  O  O17  1  0.36788467  0.98638815  0.03243086  1
  O  O18  1  0.02153474  0.98396599  0.36122391  1
  W  W19  1  0.03556262  0.48993433  0.24757461  1
