# generated using pymatgen
data_Li3CrBiP5O11
_symmetry_space_group_name_H-M   'P 1'
_cell_length_a   6.19267618
_cell_length_b   6.34941363
_cell_length_c   7.67161664
_cell_angle_alpha   65.97174383
_cell_angle_beta   83.35728554
_cell_angle_gamma   92.58493232
_symmetry_Int_Tables_number   1
_chemical_formula_structural   Li3CrBiP5O11
_chemical_formula_sum   'Li3 Cr1 Bi1 P5 O11'
_cell_volume   272.24107864
_cell_formula_units_Z   1
loop_
 _symmetry_equiv_pos_site_id
 _symmetry_equiv_pos_as_xyz
  1  'x, y, z'
loop_
 _atom_site_type_symbol
 _atom_site_label
 _atom_site_symmetry_multiplicity
 _atom_site_fract_x
 _atom_site_fract_y
 _atom_site_fract_z
 _atom_site_occupancy
  Li  Li0  1  0.96229017  0.92307007  0.29497954  1
  Li  Li1  1  0.38657683  0.42197046  0.40528902  1
  Li  Li2  1  0.60414290  0.45023203  0.74559349  1
  Cr  Cr3  1  0.81549037  0.11317736  0.03439249  1
  Bi  Bi4  1  0.97057825  0.96145093  0.62028480  1
  O  O5  1  0.01315667  0.37962830  0.01083259  1
  O  O6  1  0.02590479  0.97688752  0.01446886  1
  O  O7  1  0.95839733  0.53167027  0.64616460  1
  O  O8  1  0.88094902  0.72230524  0.97163486  1
  P  P9  1  0.57380503  0.96684843  0.04246335  1
  P  P10  1  0.02848690  0.08536670  0.18272281  1
  O  O11  1  0.01225860  0.56960583  0.56832099  1
  O  O12  1  0.98118585  0.46590823  0.01224284  1
  P  P13  1  0.27727100  0.99038810  0.96711701  1
  P  P14  1  0.33252957  0.06575263  0.51028162  1
  O  O15  1  0.53478169  0.98367411  0.60121500  1
  O  O16  1  0.96819371  0.55913222  0.36586934  1
  O  O17  1  0.04126458  0.06615056  0.71141893  1
  O  O18  1  0.33268386  0.98629850  0.03519725  1
  P  P19  1  0.02196503  0.98579460  0.40001887  1
  O  O20  1  0.03613821  0.55700666  0.25250199  1
