# generated using pymatgen
data_Li4VCrP5O9
_symmetry_space_group_name_H-M   'P 1'
_cell_length_a   6.20994172
_cell_length_b   7.18744591
_cell_length_c   8.53408221
_cell_angle_alpha   84.81195794
_cell_angle_beta   85.48247409
_cell_angle_gamma   83.49431457
_symmetry_Int_Tables_number   1
_chemical_formula_structural   Li4VCrP5O9
_chemical_formula_sum   'Li4 V1 Cr1 P5 O9'
_cell_volume   375.99903473
_cell_formula_units_Z   1
loop_
 _symmetry_equiv_pos_site_id
 _symmetry_equiv_pos_as_xyz
  1  'x, y, z'
loop_
 _atom_site_type_symbol
 _atom_site_label
 _atom_site_symmetry_multiplicity
 _atom_site_fract_x
 _atom_site_fract_y
 _atom_site_fract_z
 _atom_site_occupancy
  Li  Li0  1  0.96283501  0.93163657  0.27810940  1
  Li  Li1  1  0.42344123  0.42208850  0.37777123  1
  Li  Li2  1  0.60333085  0.38164550  0.73800445  1
  Li  Li3  1  0.84772521  0.11574052  0.03622355  1
  V  V4  1  0.01290934  0.38649505  0.00971005  1
  P  P5  1  0.02440959  0.97742653  0.01561985  1
  O  O6  1  0.95720911  0.54066449  0.68224972  1
  Cr  Cr7  1  0.87895679  0.76775539  0.97195631  1
  O  O8  1  0.64891958  0.96447349  0.04405834  1
  O  O9  1  0.02830420  0.08520858  0.14138164  1
  O  O10  1  0.01195040  0.50144827  0.54575133  1
  O  O11  1  0.98174584  0.45826256  0.01126663  1
  P  P12  1  0.33517212  0.99000323  0.96730673  1
  P  P13  1  0.34938791  0.06571146  0.55570585  1
  P  P14  1  0.55060017  0.98396111  0.56515348  1
  P  P15  1  0.96882200  0.52046061  0.31590661  1
  O  O16  1  0.03593604  0.06579804  0.67562026  1
  O  O17  1  0.36812544  0.98763156  0.03199746  1
  O  O18  1  0.02250396  0.98619574  0.35864249  1
  O  O19  1  0.03556353  0.50126803  0.25374180  1
