# generated using pymatgen
data_Li4FeP4O9
_symmetry_space_group_name_H-M   'P 1'
_cell_length_a   3.91436665
_cell_length_b   6.55205000
_cell_length_c   4.28009217
_cell_angle_alpha   51.05970372
_cell_angle_beta   96.16390289
_cell_angle_gamma   94.54080683
_symmetry_Int_Tables_number   1
_chemical_formula_structural   Li4FeP4O9
_chemical_formula_sum   'Li4 Fe1 P4 O9'
_cell_volume   84.87756113
_cell_formula_units_Z   1
loop_
 _symmetry_equiv_pos_site_id
 _symmetry_equiv_pos_as_xyz
  1  'x, y, z'
loop_
 _atom_site_type_symbol
 _atom_site_label
 _atom_site_symmetry_multiplicity
 _atom_site_fract_x
 _atom_site_fract_y
 _atom_site_fract_z
 _atom_site_occupancy
  Li  Li0  1  0.95117700  0.91276002  0.44045943  1
  Li  Li1  1  0.34052524  0.50336158  0.38605285  1
  Li  Li2  1  0.64711481  0.45827413  0.73460370  1
  Li  Li3  1  0.77948684  0.12142390  0.05215565  1
  O  O4  1  0.94605660  0.43514794  0.67420882  1
  P  P5  1  0.85891640  0.70020252  0.96663690  1
  O  O6  1  0.51233172  0.95255905  0.05123352  1
  Fe  Fe7  1  0.03376596  0.09835493  0.22292086  1
  O  O8  1  0.01850357  0.60970467  0.60740519  1
  O  O9  1  0.97339129  0.35202342  0.02362987  1
  O  O10  1  0.24141806  0.97556865  0.96085626  1
  P  P11  1  0.31319577  0.07409956  0.46389905  1
  O  O12  1  0.53667551  0.97056627  0.59463638  1
  P  P13  1  0.95835996  0.55975479  0.46411288  1
  O  O14  1  0.05600160  0.07446776  0.74731034  1
  P  P15  1  0.35382664  0.97465229  0.04744981  1
  O  O16  1  0.03035839  0.97312456  0.46120304  1
  O  O17  1  0.05012197  0.52541161  0.24122483  1
