# generated using pymatgen
data_Li2P3O5
_symmetry_space_group_name_H-M   'P 1'
_cell_length_a   7.96320699
_cell_length_b   6.75649160
_cell_length_c   7.05616962
_cell_angle_alpha   81.31432116
_cell_angle_beta   90.81864944
_cell_angle_gamma   102.49832179
_symmetry_Int_Tables_number   1
_chemical_formula_structural   Li2P3O5
_chemical_formula_sum   'Li4 P6 O10'
_cell_volume   366.33151982
_cell_formula_units_Z   2
loop_
 _symmetry_equiv_pos_site_id
 _symmetry_equiv_pos_as_xyz
  1  'x, y, z'
loop_
 _atom_site_type_symbol
 _atom_site_label
 _atom_site_symmetry_multiplicity
 _atom_site_fract_x
 _atom_site_fract_y
 _atom_site_fract_z
 _atom_site_occupancy
  Li  Li0  1  0.96063441  0.93338615  0.30280799  1
  Li  Li1  1  0.36354327  0.45558286  0.35146877  1
  Li  Li2  1  0.65628362  0.41496879  0.74367630  1
  Li  Li3  1  0.82277834  0.11371090  0.03439768  1
  O  O4  1  0.01399040  0.32626483  0.01255386  1
  O  O5  1  0.02707256  0.97408307  0.01656106  1
  P  P6  1  0.95611137  0.54073399  0.66324580  1
  P  P7  1  0.87355405  0.75588089  0.97080696  1
  O  O8  1  0.58308834  0.96571159  0.04012764  1
  O  O9  1  0.02998755  0.08829857  0.15975073  1
  P  P10  1  0.01271764  0.54328614  0.58216035  1
  O  O11  1  0.97952789  0.42253017  0.01299412  1
  O  O12  1  0.23553035  0.98678523  0.96631598  1
  P  P13  1  0.28499612  0.06627720  0.46715531  1
  O  O14  1  0.56029886  0.98204714  0.62898737  1
  O  O15  1  0.96717387  0.50600106  0.40008125  1
  P  P16  1  0.04482374  0.06680012  0.77193099  1
  O  O17  1  0.36806393  0.98493582  0.03596873  1
  O  O18  1  0.02262649  0.98256642  0.35985592  1
  P  P19  1  0.03727996  0.52221930  0.20755097  1
