# generated using pymatgen
data_Li3V2Ni3(PO2)4
_symmetry_space_group_name_H-M   'P 1'
_cell_length_a   5.08900409
_cell_length_b   5.79068938
_cell_length_c   8.21000751
_cell_angle_alpha   66.16725223
_cell_angle_beta   73.80368259
_cell_angle_gamma   88.27203596
_symmetry_Int_Tables_number   1
_chemical_formula_structural   Li3V2Ni3(PO2)4
_chemical_formula_sum   'Li3 V2 Ni3 P4 O8'
_cell_volume   211.58499570
_cell_formula_units_Z   1
loop_
 _symmetry_equiv_pos_site_id
 _symmetry_equiv_pos_as_xyz
  1  'x, y, z'
loop_
 _atom_site_type_symbol
 _atom_site_label
 _atom_site_symmetry_multiplicity
 _atom_site_fract_x
 _atom_site_fract_y
 _atom_site_fract_z
 _atom_site_occupancy
  Li  Li0  1  0.95872235  0.94151115  0.29176965  1
  Li  Li1  1  0.42975143  0.40903971  0.32926875  1
  Li  Li2  1  0.61041594  0.35781679  0.74047434  1
  V  V3  1  0.85105950  0.11611637  0.03767338  1
  V  V4  1  0.01507696  0.33669266  0.01255975  1
  Ni  Ni5  1  0.02734105  0.97328889  0.01886298  1
  O  O6  1  0.95595056  0.60496926  0.68456793  1
  P  P7  1  0.87405318  0.78543288  0.96977407  1
  O  O8  1  0.66164535  0.96297419  0.04388509  1
  P  P9  1  0.03059721  0.09059215  0.13159394  1
  Ni  Ni10  1  0.01413925  0.45889828  0.58921146  1
  P  P11  1  0.97888321  0.46059769  0.01411396  1
  O  O12  1  0.27188730  0.98531508  0.96524078  1
  O  O13  1  0.30109075  0.06783657  0.56266242  1
  O  O14  1  0.58695370  0.97839224  0.55720705  1
  O  O15  1  0.96550834  0.47420409  0.33099538  1
  O  O16  1  0.04209029  0.06870972  0.73955947  1
  P  P17  1  0.39273661  0.98423457  0.03210375  1
  O  O18  1  0.02366366  0.97986454  0.36367404  1
  Ni  Ni19  1  0.03975477  0.48643893  0.25914708  1
