# generated using pymatgen
data_Li3VFe(P2O5)2
_symmetry_space_group_name_H-M   'P 1'
_cell_length_a   6.57526776
_cell_length_b   3.83414624
_cell_length_c   5.38727685
_cell_angle_alpha   61.23312796
_cell_angle_beta   78.30445706
_cell_angle_gamma   100.57822252
_symmetry_Int_Tables_number   1
_chemical_formula_structural   Li3VFe(P2O5)2
_chemical_formula_sum   'Li3 V1 Fe1 P4 O10'
_cell_volume   110.15278239
_cell_formula_units_Z   1
loop_
 _symmetry_equiv_pos_site_id
 _symmetry_equiv_pos_as_xyz
  1  'x, y, z'
loop_
 _atom_site_type_symbol
 _atom_site_label
 _atom_site_symmetry_multiplicity
 _atom_site_fract_x
 _atom_site_fract_y
 _atom_site_fract_z
 _atom_site_occupancy
  Li  Li0  1  0.95339805  0.91252095  0.42451635  1
  Li  Li1  1  0.28562847  0.51995820  0.39563453  1
  Li  Li2  1  0.68932742  0.48682651  0.73482597  1
  Fe  Fe3  1  0.76970094  0.11921641  0.04514039  1
  V  V4  1  0.03458382  0.96686298  0.02209559  1
  P  P5  1  0.94882399  0.43749869  0.64643818  1
  O  O6  1  0.85892242  0.66433287  0.96860182  1
  O  O7  1  0.47129172  0.95881909  0.04668684  1
  P  P8  1  0.03198292  0.09482694  0.23171631  1
  O  O9  1  0.01602951  0.63387334  0.59687692  1
  O  O10  1  0.97568530  0.36020270  0.02026491  1
  P  P11  1  0.20103480  0.97754908  0.96383166  1
  O  O12  1  0.29216307  0.07090580  0.38249773  1
  O  O13  1  0.51130086  0.97425866  0.64524734  1
  P  P14  1  0.96172035  0.57461274  0.48867160  1
  O  O15  1  0.05774950  0.07199070  0.78432363  1
  O  O16  1  0.33050257  0.97859639  0.04636776  1
  O  O17  1  0.02652232  0.97832429  0.43711343  1
  O  O18  1  0.04525203  0.56835848  0.20334554  1
