# generated using pymatgen
data_NaLi2Mn2FeCoP3O8
_symmetry_space_group_name_H-M   'P 1'
_cell_length_a   4.91764142
_cell_length_b   6.03609970
_cell_length_c   4.44301796
_cell_angle_alpha   87.28494968
_cell_angle_beta   80.62694038
_cell_angle_gamma   116.83111359
_symmetry_Int_Tables_number   1
_chemical_formula_structural   NaLi2Mn2FeCoP3O8
_chemical_formula_sum   'Na1 Li2 Mn2 Fe1 Co1 P3 O8'
_cell_volume   115.01445152
_cell_formula_units_Z   1
loop_
 _symmetry_equiv_pos_site_id
 _symmetry_equiv_pos_as_xyz
  1  'x, y, z'
loop_
 _atom_site_type_symbol
 _atom_site_label
 _atom_site_symmetry_multiplicity
 _atom_site_fract_x
 _atom_site_fract_y
 _atom_site_fract_z
 _atom_site_occupancy
  Li  Li0  1  0.95107031  0.89152026  0.35612050  1
  Li  Li1  1  0.35982752  0.44254705  0.44566521  1
  Mn  Mn2  1  0.67197818  0.52002269  0.71856099  1
  Mn  Mn3  1  0.76276678  0.13018437  0.05421998  1
  O  O4  1  0.94506454  0.46138933  0.61867988  1
  P  P5  1  0.85892409  0.62097919  0.96707690  1
  O  O6  1  0.48886314  0.95442134  0.05692023  1
  Fe  Fe7  1  0.03614674  0.09752436  0.24784410  1
  Na  Na8  1  0.01818661  0.64124089  0.56257290  1
  P  P9  1  0.97375667  0.42122501  0.02387358  1
  O  O10  1  0.26625112  0.97711378  0.96121699  1
  Co  Co11  1  0.37288138  0.07466574  0.45348549  1
  O  O12  1  0.48199588  0.96919250  0.62822491  1
  O  O13  1  0.95872384  0.60195345  0.42925239  1
  O  O14  1  0.05644331  0.07392037  0.70964789  1
  P  P15  1  0.33036524  0.97388220  0.04979076  1
  O  O16  1  0.03031497  0.97317713  0.43038881  1
  O  O17  1  0.04885738  0.59287602  0.23248301  1
