# generated using pymatgen
data_Li3NiP4O11
_symmetry_space_group_name_H-M   'P 1'
_cell_length_a   7.57463218
_cell_length_b   5.04085134
_cell_length_c   6.82595361
_cell_angle_alpha   81.85081062
_cell_angle_beta   68.11678260
_cell_angle_gamma   100.98141450
_symmetry_Int_Tables_number   1
_chemical_formula_structural   Li3NiP4O11
_chemical_formula_sum   'Li3 Ni1 P4 O11'
_cell_volume   230.85848413
_cell_formula_units_Z   1
loop_
 _symmetry_equiv_pos_site_id
 _symmetry_equiv_pos_as_xyz
  1  'x, y, z'
loop_
 _atom_site_type_symbol
 _atom_site_label
 _atom_site_symmetry_multiplicity
 _atom_site_fract_x
 _atom_site_fract_y
 _atom_site_fract_z
 _atom_site_occupancy
  Li  Li0  1  0.95330870  0.90103978  0.28707287  1
  Li  Li1  1  0.45500898  0.42052418  0.43137684  1
  Ni  Ni2  1  0.57355380  0.46089080  0.72345811  1
  Li  Li3  1  0.79927373  0.13041069  0.05249003  1
  O  O4  1  0.03306308  0.96287090  0.02516050  1
  P  P5  1  0.94737947  0.52707344  0.62652439  1
  O  O6  1  0.86633432  0.70578343  0.96809179  1
  O  O7  1  0.58609468  0.95363516  0.06155234  1
  P  P8  1  0.03663218  0.09591533  0.20063564  1
  P  P9  1  0.01738112  0.56425434  0.53420919  1
  O  O10  1  0.97473764  0.50860530  0.02032304  1
  O  O11  1  0.33287004  0.97950971  0.96241701  1
  O  O12  1  0.38068190  0.07400623  0.54992646  1
  O  O13  1  0.51702029  0.97275263  0.54967684  1
  P  P14  1  0.96073753  0.57192844  0.33589873  1
  O  O15  1  0.04946924  0.07282839  0.65791541  1
  O  O16  1  0.34761840  0.97618985  0.04660045  1
  O  O17  1  0.02927897  0.97494769  0.40232155  1
  O  O18  1  0.04461807  0.57778603  0.29841676  1
