# generated using pymatgen
data_Li4Sn(PO2)5
_symmetry_space_group_name_H-M   'P 1'
_cell_length_a   6.89224144
_cell_length_b   4.42651095
_cell_length_c   4.58685935
_cell_angle_alpha   65.95569094
_cell_angle_beta   91.24168003
_cell_angle_gamma   91.60268898
_symmetry_Int_Tables_number   1
_chemical_formula_structural   Li4Sn(PO2)5
_chemical_formula_sum   'Li4 Sn1 P5 O10'
_cell_volume   127.73811032
_cell_formula_units_Z   1
loop_
 _symmetry_equiv_pos_site_id
 _symmetry_equiv_pos_as_xyz
  1  'x, y, z'
loop_
 _atom_site_type_symbol
 _atom_site_label
 _atom_site_symmetry_multiplicity
 _atom_site_fract_x
 _atom_site_fract_y
 _atom_site_fract_z
 _atom_site_occupancy
  Li  Li0  1  0.96087515  0.93861997  0.25843742  1
  Li  Li1  1  0.45281866  0.40313041  0.35210952  1
  Li  Li2  1  0.58133471  0.36853194  0.73750240  1
  Li  Li3  1  0.84327340  0.12020922  0.03422142  1
  O  O4  1  0.01431353  0.37610078  0.01135873  1
  Sn  Sn5  1  0.02636386  0.97471303  0.01775227  1
  O  O6  1  0.95661539  0.57871950  0.65876788  1
  P  P7  1  0.87403744  0.78788120  0.97086501  1
  O  O8  1  0.64562869  0.96110344  0.04506195  1
  O  O9  1  0.03155199  0.08843911  0.14101169  1
  P  P10  1  0.01309023  0.48786443  0.55865854  1
  P  P11  1  0.97996348  0.48925191  0.01252254  1
  O  O12  1  0.28057283  0.98777759  0.96666604  1
  O  O13  1  0.31117883  0.06709691  0.55095965  1
  O  O14  1  0.57238692  0.98202014  0.55096966  1
  O  O15  1  0.96721148  0.50277764  0.31599739  1
  O  O16  1  0.03988211  0.06692431  0.71974260  1
  P  P17  1  0.37487987  0.98538959  0.03361958  1
  P  P18  1  0.02312159  0.98111939  0.33568740  1
  O  O19  1  0.03795478  0.49958673  0.27285638  1
