# generated using pymatgen
data_Li3CoNiBiP5O7
_symmetry_space_group_name_H-M   'P 1'
_cell_length_a   5.36494544
_cell_length_b   6.43952334
_cell_length_c   5.05943770
_cell_angle_alpha   104.73140777
_cell_angle_beta   126.37213482
_cell_angle_gamma   82.84943579
_symmetry_Int_Tables_number   1
_chemical_formula_structural   Li3CoNiBiP5O7
_chemical_formula_sum   'Li3 Co1 Ni1 Bi1 P5 O7'
_cell_volume   136.03524115
_cell_formula_units_Z   1
loop_
 _symmetry_equiv_pos_site_id
 _symmetry_equiv_pos_as_xyz
  1  'x, y, z'
loop_
 _atom_site_type_symbol
 _atom_site_label
 _atom_site_symmetry_multiplicity
 _atom_site_fract_x
 _atom_site_fract_y
 _atom_site_fract_z
 _atom_site_occupancy
  Li  Li0  1  0.94906884  0.86645877  0.23790815  1
  Bi  Bi1  1  0.45202556  0.41398141  0.48747250  1
  Li  Li2  1  0.62276977  0.49035457  0.70383418  1
  Li  Li3  1  0.77330261  0.15072750  0.05259201  1
  P  P4  1  0.94069642  0.53645313  0.55572790  1
  O  O5  1  0.85296720  0.66586703  0.96662593  1
  P  P6  1  0.59458524  0.94571751  0.07492856  1
  Ni  Ni7  1  0.04368888  0.09955116  0.21701100  1
  P  P8  1  0.01887142  0.59066367  0.47398266  1
  O  O9  1  0.97317094  0.56378204  0.02442151  1
  Co  Co10  1  0.38822517  0.97411072  0.96025646  1
  O  O11  1  0.43168944  0.07740138  0.49689469  1
  O  O12  1  0.47768182  0.96572906  0.58963132  1
  P  P13  1  0.95571703  0.60510743  0.30369866  1
  O  O14  1  0.05610070  0.07554438  0.62022966  1
  O  O15  1  0.32468182  0.97157866  0.05642607  1
  P  P16  1  0.03309542  0.97003949  0.35601607  1
  O  O17  1  0.05025084  0.60976577  0.28280976  1
