# generated using pymatgen
data_Li2Mn2VNi(P2O5)2
_symmetry_space_group_name_H-M   'P 1'
_cell_length_a   6.90415360
_cell_length_b   6.43571940
_cell_length_c   7.54838293
_cell_angle_alpha   71.74732914
_cell_angle_beta   101.73803994
_cell_angle_gamma   88.00893495
_symmetry_Int_Tables_number   1
_chemical_formula_structural   Li2Mn2VNi(P2O5)2
_chemical_formula_sum   'Li2 Mn2 V1 Ni1 P4 O10'
_cell_volume   310.10862493
_cell_formula_units_Z   1
loop_
 _symmetry_equiv_pos_site_id
 _symmetry_equiv_pos_as_xyz
  1  'x, y, z'
loop_
 _atom_site_type_symbol
 _atom_site_label
 _atom_site_symmetry_multiplicity
 _atom_site_fract_x
 _atom_site_fract_y
 _atom_site_fract_z
 _atom_site_occupancy
  Li  Li0  1  0.96471781  0.93701345  0.30074963  1
  Li  Li1  1  0.43374017  0.40596372  0.37304360  1
  Mn  Mn2  1  0.61580575  0.40669149  0.73752481  1
  V  V3  1  0.84054434  0.11050686  0.03548235  1
  P  P4  1  0.01290787  0.36521229  0.00849297  1
  O  O5  1  0.02433188  0.97839862  0.01516102  1
  Ni  Ni6  1  0.95980650  0.54737818  0.67187285  1
  Mn  Mn7  1  0.88464898  0.76022667  0.97182721  1
  O  O8  1  0.62095517  0.96805757  0.03814530  1
  O  O9  1  0.02671776  0.08425607  0.15458047  1
  O  O10  1  0.01211499  0.52754498  0.58197379  1
  O  O11  1  0.98154449  0.45637056  0.01027682  1
  O  O12  1  0.29099593  0.99279290  0.96738136  1
  O  O13  1  0.30533129  0.06543718  0.56558663  1
  O  O14  1  0.56081557  0.98536551  0.53996146  1
  O  O15  1  0.96932131  0.53077030  0.33556277  1
  P  P16  1  0.03817122  0.06498566  0.70991296  1
  O  O17  1  0.35191438  0.98760414  0.03051909  1
  P  P18  1  0.02078700  0.98891735  0.40998700  1
  P  P19  1  0.03588176  0.52614194  0.28128421  1
