# generated using pymatgen
data_Li5NiP4WO9
_symmetry_space_group_name_H-M   'P 1'
_cell_length_a   7.61246361
_cell_length_b   4.80885487
_cell_length_c   6.23183328
_cell_angle_alpha   76.60721937
_cell_angle_beta   110.48772113
_cell_angle_gamma   113.76291851
_symmetry_Int_Tables_number   1
_chemical_formula_structural   Li5NiP4WO9
_chemical_formula_sum   'Li5 Ni1 P4 W1 O9'
_cell_volume   194.48803246
_cell_formula_units_Z   1
loop_
 _symmetry_equiv_pos_site_id
 _symmetry_equiv_pos_as_xyz
  1  'x, y, z'
loop_
 _atom_site_type_symbol
 _atom_site_label
 _atom_site_symmetry_multiplicity
 _atom_site_fract_x
 _atom_site_fract_y
 _atom_site_fract_z
 _atom_site_occupancy
  Li  Li0  1  0.96267509  0.95211107  0.24645437  1
  Li  Li1  1  0.43662652  0.39433429  0.31516457  1
  Li  Li2  1  0.61331135  0.35250920  0.74265307  1
  Li  Li3  1  0.86207616  0.11059152  0.03094728  1
  O  O4  1  0.01341394  0.33646032  0.00895527  1
  P  P5  1  0.02463707  0.97727376  0.01485883  1
  O  O6  1  0.95976299  0.63675678  0.69789732  1
  O  O7  1  0.88026780  0.80257601  0.97107536  1
  Ni  Ni8  1  0.65694517  0.96873856  0.03920056  1
  O  O9  1  0.02906733  0.08674259  0.11701478  1
  P  P10  1  0.01220997  0.45274687  0.59595996  1
  Li  Li11  1  0.98094207  0.47097558  0.00993042  1
  O  O12  1  0.26113552  0.99049848  0.96718240  1
  P  P13  1  0.29020929  0.06583339  0.57888883  1
  O  O14  1  0.59451169  0.98535448  0.58490944  1
  O  O15  1  0.96894401  0.45802155  0.32938540  1
  W  W16  1  0.03760147  0.06628668  0.74868333  1
  P  P17  1  0.39597774  0.98722917  0.02660517  1
  O  O18  1  0.02103573  0.98414195  0.34974813  1
  O  O19  1  0.03588624  0.47448555  0.25094950  1
